
No compatibility mode selected!

Warning: Unusual leading characters like ')' or others out of '= [] ? () & % $"!:,;\f'
    in netlist or included files, will be replaced with '*'.
    Check line no 7:  )


Circuit: * /home/yogapriyab2001/esim-workspace/mixed/mixed.cir

Reducing trtol to 1 for xspice 'A' devices
Doing analysis at TEMP = 27.000000 and TNOM = 27.000000

=============yogapriya_rvmyth : New Iteration===========
Instance : 0

Inside foo before eval.....
clk=0
reset=0
out=0

Inside foo after eval.....
clk=0
reset=0
out=0
=============yogapriya_rvmyth : New Iteration===========
Instance : 0

Inside foo before eval.....
clk=0
reset=0
out=0

Inside foo after eval.....
clk=0
reset=0
out=0

Initial Transient Solution
--------------------------

Node                                   Voltage
----                                   -------
net-_r1-pad1_                               10
net-_r1-pad2_                         0.029357
c_out                                0.0784498
rst                                          0
x2.net-_r1-pad1_                             0
x2.net-_r1-pad2_                             0
x2.net-_r2-pad1_                             0
x2.net-_r3-pad1_                             0
x2.net-_r4-pad1_                             0
x2.net-_r5-pad1_                             0
x2.net-_r6-pad1_                             0
x2.net-_r7-pad1_                             0
x2.net-_r9-pad1_                             0
x2.net-_r10-pad1_                            0
x2.net-_r11-pad1_                            0
out                                          0
net-_u4-pad4_                                0
net-_u4-pad3_                                0
net-_u5-pad16_                               0
net-_u5-pad15_                               0
net-_u5-pad14_                               0
net-_u5-pad13_                               0
net-_u5-pad12_                               0
net-_u5-pad11_                               0
net-_u5-pad10_                               0
net-_u5-pad9_                                0
clk                                          5
x1.net-_c2-pad1_                       6.65301
x1.x1.18                                 32440
x1.x1.23                               3.32245
x1.x1.9                                      5
x1.x1.2                                1.79645
x1.x1.20                                 32440
x1.x1.17                              -65745.6
x1.x1.19                              -65745.6
x1.x1.11                                     0
x1.x1.12                                     5
e.x1.x1.e1#branch                            0
e.x1.x1.e2#branch                            0
v2#branch                                    0
v1#branch                             -0.01064
a.x1.x1.a4#branch_1_0                        0
a.x1.x1.a3#branch_1_0                        0
a.x2.a11#branch_1_0                          0
a.x2.a10#branch_1_0                          0
a.x2.a9#branch_1_0                           0
a.x2.a8#branch_1_0                           0
a.x2.a7#branch_1_0                           0
a.x2.a6#branch_1_0                           0
a.x2.a5#branch_1_0                           0
a.x2.a4#branch_1_0                           0
a.x2.a3#branch_1_0                           0
a.x2.a2#branch_1_0                           0
a.x2.a1#branch_1_0                           0
a3#branch_1_0                                0
a3#branch_1_1                                0
a3#branch_1_2                                0
a3#branch_1_3                                0
a3#branch_1_4                                0
a3#branch_1_5                                0
a3#branch_1_6                                0
a3#branch_1_7                                0
a2#branch_1_0                                0
a2#branch_1_1                                0
a.x1.x1.a6#branch_1_0               -0.0021357
a.x1.x1.a5#branch_1_0                   -0.005


ERROR - Output delay <= 0 not allowed - output ignored!
  Instance: a.x1.x1.a2
  Node: x1.x1.8
  Time: 0.000000 

ERROR - Output delay <= 0 not allowed - output ignored!
  Instance: a.x1.x1.a2
  Node: x1.x1.10
  Time: 0.000000 
=============yogapriya_rvmyth : New Iteration===========
Instance : 0

Inside foo before eval.....
clk=0
reset=0
out=0

Inside foo after eval.....
clk=1
reset=0
out=0
=============yogapriya_rvmyth : New Iteration===========
Instance : 0

Inside foo before eval.....
clk=1
reset=0
out=0

Inside foo after eval.....
clk=0
reset=0
out=0
=============yogapriya_rvmyth : New Iteration===========
Instance : 0

Inside foo before eval.....
clk=0
reset=0
out=0

Inside foo after eval.....
clk=1
reset=0
out=0
=============yogapriya_rvmyth : New Iteration===========
Instance : 0

Inside foo before eval.....
clk=1
reset=0
out=0

Inside foo after eval.....
clk=1
reset=0
out=0
=============yogapriya_rvmyth : New Iteration===========
Instance : 0

Inside foo before eval.....
clk=1
reset=0
out=0

Inside foo after eval.....
clk=0
reset=0
out=0
=============yogapriya_rvmyth : New Iteration===========
Instance : 0

Inside foo before eval.....
clk=0
reset=0
out=0

Inside foo after eval.....
clk=1
reset=0
out=0
=============yogapriya_rvmyth : New Iteration===========
Instance : 0

Inside foo before eval.....
clk=1
reset=0
out=0

Inside foo after eval.....
clk=1
reset=0
out=0
=============yogapriya_rvmyth : New Iteration===========
Instance : 0

Inside foo before eval.....
clk=1
reset=0
out=0

Inside foo after eval.....
clk=0
reset=0
out=0
=============yogapriya_rvmyth : New Iteration===========
Instance : 0

Inside foo before eval.....
clk=0
reset=0
out=0

Inside foo after eval.....
clk=1
reset=0
out=0
=============yogapriya_rvmyth : New Iteration===========
Instance : 0

Inside foo before eval.....
clk=1
reset=0
out=0

Inside foo after eval.....
clk=1
reset=0
out=0
=============yogapriya_rvmyth : New Iteration===========
Instance : 0

Inside foo before eval.....
clk=1
reset=0
out=0

Inside foo after eval.....
clk=0
reset=0
out=0
=============yogapriya_rvmyth : New Iteration===========
Instance : 0

Inside foo before eval.....
clk=0
reset=0
out=0

Inside foo after eval.....
clk=1
reset=0
out=0
=============yogapriya_rvmyth : New Iteration===========
Instance : 0

Inside foo before eval.....
clk=1
reset=0
out=0

Inside foo after eval.....
clk=1
reset=0
out=0
=============yogapriya_rvmyth : New Iteration===========
Instance : 0

Inside foo before eval.....
clk=1
reset=0
out=0

Inside foo after eval.....
clk=0
reset=0
out=0
=============yogapriya_rvmyth : New Iteration===========
Instance : 0

Inside foo before eval.....
clk=0
reset=0
out=0

Inside foo after eval.....
clk=1
reset=0
out=0
=============yogapriya_rvmyth : New Iteration===========
Instance : 0

Inside foo before eval.....
clk=1
reset=0
out=0

Inside foo after eval.....
clk=1
reset=0
out=0
=============yogapriya_rvmyth : New Iteration===========
Instance : 0

Inside foo before eval.....
clk=1
reset=0
out=0

Inside foo after eval.....
clk=0
reset=0
out=0
=============yogapriya_rvmyth : New Iteration===========
Instance : 0

Inside foo before eval.....
clk=0
reset=0
out=0

Inside foo after eval.....
clk=1
reset=0
out=0
=============yogapriya_rvmyth : New Iteration===========
Instance : 0

Inside foo before eval.....
clk=1
reset=0
out=0

Inside foo after eval.....
clk=1
reset=0
out=0
=============yogapriya_rvmyth : New Iteration===========
Instance : 0

Inside foo before eval.....
clk=1
reset=0
out=0

Inside foo after eval.....
clk=0
reset=0
out=0
=============yogapriya_rvmyth : New Iteration===========
Instance : 0

Inside foo before eval.....
clk=0
reset=0
out=0

Inside foo after eval.....
clk=1
reset=0
out=0
=============yogapriya_rvmyth : New Iteration===========
Instance : 0

Inside foo before eval.....
clk=1
reset=0
out=0

Inside foo after eval.....
clk=1
reset=0
out=0
=============yogapriya_rvmyth : New Iteration===========
Instance : 0

Inside foo before eval.....
clk=1
reset=0
out=0

Inside foo after eval.....
clk=0
reset=0
out=0
=============yogapriya_rvmyth : New Iteration===========
Instance : 0

Inside foo before eval.....
clk=0
reset=0
out=0

Inside foo after eval.....
clk=1
reset=0
out=1
=============yogapriya_rvmyth : New Iteration===========
Instance : 0

Inside foo before eval.....
clk=1
reset=0
out=1

Inside foo after eval.....
clk=1
reset=0
out=1
=============yogapriya_rvmyth : New Iteration===========
Instance : 0

Inside foo before eval.....
clk=1
reset=0
out=1

Inside foo after eval.....
clk=0
reset=0
out=1
=============yogapriya_rvmyth : New Iteration===========
Instance : 0

Inside foo before eval.....
clk=0
reset=0
out=1

Inside foo after eval.....
clk=1
reset=0
out=1
=============yogapriya_rvmyth : New Iteration===========
Instance : 0

Inside foo before eval.....
clk=1
reset=0
out=1

Inside foo after eval.....
clk=1
reset=0
out=1
=============yogapriya_rvmyth : New Iteration===========
Instance : 0

Inside foo before eval.....
clk=1
reset=0
out=1

Inside foo after eval.....
clk=0
reset=0
out=1
=============yogapriya_rvmyth : New Iteration===========
Instance : 0

Inside foo before eval.....
clk=0
reset=0
out=1

Inside foo after eval.....
clk=1
reset=0
out=1
=============yogapriya_rvmyth : New Iteration===========
Instance : 0

Inside foo before eval.....
clk=1
reset=0
out=1

Inside foo after eval.....
clk=1
reset=0
out=1
=============yogapriya_rvmyth : New Iteration===========
Instance : 0

Inside foo before eval.....
clk=1
reset=0
out=1

Inside foo after eval.....
clk=0
reset=0
out=1
=============yogapriya_rvmyth : New Iteration===========
Instance : 0

Inside foo before eval.....
clk=0
reset=0
out=1

Inside foo after eval.....
clk=1
reset=0
out=1
=============yogapriya_rvmyth : New Iteration===========
Instance : 0

Inside foo before eval.....
clk=1
reset=0
out=1

Inside foo after eval.....
clk=1
reset=0
out=1
=============yogapriya_rvmyth : New Iteration===========
Instance : 0

Inside foo before eval.....
clk=1
reset=0
out=1

Inside foo after eval.....
clk=0
reset=0
out=1
=============yogapriya_rvmyth : New Iteration===========
Instance : 0

Inside foo before eval.....
clk=0
reset=0
out=1

Inside foo after eval.....
clk=1
reset=0
out=2
=============yogapriya_rvmyth : New Iteration===========
Instance : 0

Inside foo before eval.....
clk=1
reset=0
out=2

Inside foo after eval.....
clk=1
reset=0
out=2
=============yogapriya_rvmyth : New Iteration===========
Instance : 0

Inside foo before eval.....
clk=1
reset=0
out=2

Inside foo after eval.....
clk=0
reset=0
out=2
=============yogapriya_rvmyth : New Iteration===========
Instance : 0

Inside foo before eval.....
clk=0
reset=0
out=2

Inside foo after eval.....
clk=1
reset=0
out=2
=============yogapriya_rvmyth : New Iteration===========
Instance : 0

Inside foo before eval.....
clk=1
reset=0
out=2

Inside foo after eval.....
clk=1
reset=0
out=2
=============yogapriya_rvmyth : New Iteration===========
Instance : 0

Inside foo before eval.....
clk=1
reset=0
out=2

Inside foo after eval.....
clk=0
reset=0
out=2
=============yogapriya_rvmyth : New Iteration===========
Instance : 0

Inside foo before eval.....
clk=0
reset=0
out=2

Inside foo after eval.....
clk=1
reset=0
out=2
=============yogapriya_rvmyth : New Iteration===========
Instance : 0

Inside foo before eval.....
clk=1
reset=0
out=2

Inside foo after eval.....
clk=1
reset=0
out=2
=============yogapriya_rvmyth : New Iteration===========
Instance : 0

Inside foo before eval.....
clk=1
reset=0
out=2

Inside foo after eval.....
clk=0
reset=0
out=2
=============yogapriya_rvmyth : New Iteration===========
Instance : 0

Inside foo before eval.....
clk=0
reset=0
out=2

Inside foo after eval.....
clk=1
reset=0
out=2
=============yogapriya_rvmyth : New Iteration===========
Instance : 0

Inside foo before eval.....
clk=1
reset=0
out=2

Inside foo after eval.....
clk=1
reset=0
out=2
=============yogapriya_rvmyth : New Iteration===========
Instance : 0

Inside foo before eval.....
clk=1
reset=0
out=2

Inside foo after eval.....
clk=0
reset=0
out=2
=============yogapriya_rvmyth : New Iteration===========
Instance : 0

Inside foo before eval.....
clk=0
reset=0
out=2

Inside foo after eval.....
clk=1
reset=0
out=3
=============yogapriya_rvmyth : New Iteration===========
Instance : 0

Inside foo before eval.....
clk=1
reset=0
out=3

Inside foo after eval.....
clk=1
reset=0
out=3
=============yogapriya_rvmyth : New Iteration===========
Instance : 0

Inside foo before eval.....
clk=1
reset=0
out=3

Inside foo after eval.....
clk=0
reset=0
out=3
=============yogapriya_rvmyth : New Iteration===========
Instance : 0

Inside foo before eval.....
clk=0
reset=0
out=3

Inside foo after eval.....
clk=1
reset=0
out=3
=============yogapriya_rvmyth : New Iteration===========
Instance : 0

Inside foo before eval.....
clk=1
reset=0
out=3

Inside foo after eval.....
clk=1
reset=0
out=3
=============yogapriya_rvmyth : New Iteration===========
Instance : 0

Inside foo before eval.....
clk=1
reset=0
out=3

Inside foo after eval.....
clk=0
reset=0
out=3
=============yogapriya_rvmyth : New Iteration===========
Instance : 0

Inside foo before eval.....
clk=0
reset=0
out=3

Inside foo after eval.....
clk=1
reset=0
out=3
=============yogapriya_rvmyth : New Iteration===========
Instance : 0

Inside foo before eval.....
clk=1
reset=0
out=3

Inside foo after eval.....
clk=1
reset=0
out=3
=============yogapriya_rvmyth : New Iteration===========
Instance : 0

Inside foo before eval.....
clk=1
reset=0
out=3

Inside foo after eval.....
clk=0
reset=0
out=3
=============yogapriya_rvmyth : New Iteration===========
Instance : 0

Inside foo before eval.....
clk=0
reset=0
out=3

Inside foo after eval.....
clk=1
reset=0
out=3
=============yogapriya_rvmyth : New Iteration===========
Instance : 0

Inside foo before eval.....
clk=1
reset=0
out=3

Inside foo after eval.....
clk=1
reset=0
out=3
=============yogapriya_rvmyth : New Iteration===========
Instance : 0

Inside foo before eval.....
clk=1
reset=0
out=3

Inside foo after eval.....
clk=0
reset=0
out=3
=============yogapriya_rvmyth : New Iteration===========
Instance : 0

Inside foo before eval.....
clk=0
reset=0
out=3

Inside foo after eval.....
clk=1
reset=0
out=4
=============yogapriya_rvmyth : New Iteration===========
Instance : 0

Inside foo before eval.....
clk=1
reset=0
out=4

Inside foo after eval.....
clk=1
reset=0
out=4
=============yogapriya_rvmyth : New Iteration===========
Instance : 0

Inside foo before eval.....
clk=1
reset=0
out=4

Inside foo after eval.....
clk=0
reset=0
out=4
=============yogapriya_rvmyth : New Iteration===========
Instance : 0

Inside foo before eval.....
clk=0
reset=0
out=4

Inside foo after eval.....
clk=1
reset=0
out=4
=============yogapriya_rvmyth : New Iteration===========
Instance : 0

Inside foo before eval.....
clk=1
reset=0
out=4

Inside foo after eval.....
clk=1
reset=0
out=4
=============yogapriya_rvmyth : New Iteration===========
Instance : 0

Inside foo before eval.....
clk=1
reset=0
out=4

Inside foo after eval.....
clk=0
reset=0
out=4
=============yogapriya_rvmyth : New Iteration===========
Instance : 0

Inside foo before eval.....
clk=0
reset=0
out=4

Inside foo after eval.....
clk=1
reset=0
out=4
=============yogapriya_rvmyth : New Iteration===========
Instance : 0

Inside foo before eval.....
clk=1
reset=0
out=4

Inside foo after eval.....
clk=1
reset=0
out=4
=============yogapriya_rvmyth : New Iteration===========
Instance : 0

Inside foo before eval.....
clk=1
reset=0
out=4

Inside foo after eval.....
clk=0
reset=0
out=4
=============yogapriya_rvmyth : New Iteration===========
Instance : 0

Inside foo before eval.....
clk=0
reset=0
out=4

Inside foo after eval.....
clk=1
reset=0
out=4
=============yogapriya_rvmyth : New Iteration===========
Instance : 0

Inside foo before eval.....
clk=1
reset=0
out=4

Inside foo after eval.....
clk=1
reset=0
out=4
=============yogapriya_rvmyth : New Iteration===========
Instance : 0

Inside foo before eval.....
clk=1
reset=0
out=4

Inside foo after eval.....
clk=0
reset=0
out=4
=============yogapriya_rvmyth : New Iteration===========
Instance : 0

Inside foo before eval.....
clk=0
reset=0
out=4

Inside foo after eval.....
clk=1
reset=0
out=5
=============yogapriya_rvmyth : New Iteration===========
Instance : 0

Inside foo before eval.....
clk=1
reset=0
out=5

Inside foo after eval.....
clk=1
reset=0
out=5
=============yogapriya_rvmyth : New Iteration===========
Instance : 0

Inside foo before eval.....
clk=1
reset=0
out=5

Inside foo after eval.....
clk=0
reset=0
out=5
=============yogapriya_rvmyth : New Iteration===========
Instance : 0

Inside foo before eval.....
clk=0
reset=0
out=5

Inside foo after eval.....
clk=1
reset=0
out=5
=============yogapriya_rvmyth : New Iteration===========
Instance : 0

Inside foo before eval.....
clk=1
reset=0
out=5

Inside foo after eval.....
clk=1
reset=0
out=5
=============yogapriya_rvmyth : New Iteration===========
Instance : 0

Inside foo before eval.....
clk=1
reset=0
out=5

Inside foo after eval.....
clk=0
reset=0
out=5
=============yogapriya_rvmyth : New Iteration===========
Instance : 0

Inside foo before eval.....
clk=0
reset=0
out=5

Inside foo after eval.....
clk=1
reset=0
out=5
=============yogapriya_rvmyth : New Iteration===========
Instance : 0

Inside foo before eval.....
clk=1
reset=0
out=5

Inside foo after eval.....
clk=1
reset=0
out=5
=============yogapriya_rvmyth : New Iteration===========
Instance : 0

Inside foo before eval.....
clk=1
reset=0
out=5

Inside foo after eval.....
clk=0
reset=0
out=5
=============yogapriya_rvmyth : New Iteration===========
Instance : 0

Inside foo before eval.....
clk=0
reset=0
out=5

Inside foo after eval.....
clk=1
reset=0
out=5
=============yogapriya_rvmyth : New Iteration===========
Instance : 0

Inside foo before eval.....
clk=1
reset=0
out=5

Inside foo after eval.....
clk=1
reset=0
out=5
=============yogapriya_rvmyth : New Iteration===========
Instance : 0

Inside foo before eval.....
clk=1
reset=0
out=5

Inside foo after eval.....
clk=0
reset=0
out=5
=============yogapriya_rvmyth : New Iteration===========
Instance : 0

Inside foo before eval.....
clk=0
reset=0
out=5

Inside foo after eval.....
clk=1
reset=0
out=6
=============yogapriya_rvmyth : New Iteration===========
Instance : 0

Inside foo before eval.....
clk=1
reset=0
out=6

Inside foo after eval.....
clk=1
reset=0
out=6
=============yogapriya_rvmyth : New Iteration===========
Instance : 0

Inside foo before eval.....
clk=1
reset=0
out=6

Inside foo after eval.....
clk=0
reset=0
out=6
=============yogapriya_rvmyth : New Iteration===========
Instance : 0

Inside foo before eval.....
clk=0
reset=0
out=6

Inside foo after eval.....
clk=1
reset=0
out=6
=============yogapriya_rvmyth : New Iteration===========
Instance : 0

Inside foo before eval.....
clk=1
reset=0
out=6

Inside foo after eval.....
clk=1
reset=0
out=6
=============yogapriya_rvmyth : New Iteration===========
Instance : 0

Inside foo before eval.....
clk=1
reset=0
out=6

Inside foo after eval.....
clk=0
reset=0
out=6
=============yogapriya_rvmyth : New Iteration===========
Instance : 0

Inside foo before eval.....
clk=0
reset=0
out=6

Inside foo after eval.....
clk=1
reset=0
out=6
=============yogapriya_rvmyth : New Iteration===========
Instance : 0

Inside foo before eval.....
clk=1
reset=0
out=6

Inside foo after eval.....
clk=1
reset=0
out=6
=============yogapriya_rvmyth : New Iteration===========
Instance : 0

Inside foo before eval.....
clk=1
reset=0
out=6

Inside foo after eval.....
clk=0
reset=0
out=6
=============yogapriya_rvmyth : New Iteration===========
Instance : 0

Inside foo before eval.....
clk=0
reset=0
out=6

Inside foo after eval.....
clk=1
reset=0
out=6
=============yogapriya_rvmyth : New Iteration===========
Instance : 0

Inside foo before eval.....
clk=1
reset=0
out=6

Inside foo after eval.....
clk=1
reset=0
out=6
=============yogapriya_rvmyth : New Iteration===========
Instance : 0

Inside foo before eval.....
clk=1
reset=0
out=6

Inside foo after eval.....
clk=0
reset=0
out=6
=============yogapriya_rvmyth : New Iteration===========
Instance : 0

Inside foo before eval.....
clk=0
reset=0
out=6

Inside foo after eval.....
clk=1
reset=0
out=7
=============yogapriya_rvmyth : New Iteration===========
Instance : 0

Inside foo before eval.....
clk=1
reset=0
out=7

Inside foo after eval.....
clk=1
reset=0
out=7
=============yogapriya_rvmyth : New Iteration===========
Instance : 0

Inside foo before eval.....
clk=1
reset=0
out=7

Inside foo after eval.....
clk=0
reset=0
out=7
=============yogapriya_rvmyth : New Iteration===========
Instance : 0

Inside foo before eval.....
clk=0
reset=0
out=7

Inside foo after eval.....
clk=1
reset=0
out=7
=============yogapriya_rvmyth : New Iteration===========
Instance : 0

Inside foo before eval.....
clk=1
reset=0
out=7

Inside foo after eval.....
clk=1
reset=0
out=7
=============yogapriya_rvmyth : New Iteration===========
Instance : 0

Inside foo before eval.....
clk=1
reset=0
out=7

Inside foo after eval.....
clk=0
reset=0
out=7
=============yogapriya_rvmyth : New Iteration===========
Instance : 0

Inside foo before eval.....
clk=0
reset=0
out=7

Inside foo after eval.....
clk=1
reset=0
out=7
=============yogapriya_rvmyth : New Iteration===========
Instance : 0

Inside foo before eval.....
clk=1
reset=0
out=7

Inside foo after eval.....
clk=1
reset=0
out=7
=============yogapriya_rvmyth : New Iteration===========
Instance : 0

Inside foo before eval.....
clk=1
reset=0
out=7

Inside foo after eval.....
clk=0
reset=0
out=7
=============yogapriya_rvmyth : New Iteration===========
Instance : 0

Inside foo before eval.....
clk=0
reset=0
out=7

Inside foo after eval.....
clk=1
reset=0
out=7
=============yogapriya_rvmyth : New Iteration===========
Instance : 0

Inside foo before eval.....
clk=1
reset=0
out=7

Inside foo after eval.....
clk=1
reset=0
out=7
=============yogapriya_rvmyth : New Iteration===========
Instance : 0

Inside foo before eval.....
clk=1
reset=0
out=7

Inside foo after eval.....
clk=0
reset=0
out=7
=============yogapriya_rvmyth : New Iteration===========
Instance : 0

Inside foo before eval.....
clk=0
reset=0
out=7

Inside foo after eval.....
clk=1
reset=0
out=8
=============yogapriya_rvmyth : New Iteration===========
Instance : 0

Inside foo before eval.....
clk=1
reset=0
out=8

Inside foo after eval.....
clk=1
reset=0
out=8
=============yogapriya_rvmyth : New Iteration===========
Instance : 0

Inside foo before eval.....
clk=1
reset=0
out=8

Inside foo after eval.....
clk=0
reset=0
out=8
=============yogapriya_rvmyth : New Iteration===========
Instance : 0

Inside foo before eval.....
clk=0
reset=0
out=8

Inside foo after eval.....
clk=1
reset=0
out=8
=============yogapriya_rvmyth : New Iteration===========
Instance : 0

Inside foo before eval.....
clk=1
reset=0
out=8

Inside foo after eval.....
clk=1
reset=0
out=8
=============yogapriya_rvmyth : New Iteration===========
Instance : 0

Inside foo before eval.....
clk=1
reset=0
out=8

Inside foo after eval.....
clk=0
reset=0
out=8
=============yogapriya_rvmyth : New Iteration===========
Instance : 0

Inside foo before eval.....
clk=0
reset=0
out=8

Inside foo after eval.....
clk=1
reset=0
out=8
=============yogapriya_rvmyth : New Iteration===========
Instance : 0

Inside foo before eval.....
clk=1
reset=0
out=8

Inside foo after eval.....
clk=1
reset=0
out=8
=============yogapriya_rvmyth : New Iteration===========
Instance : 0

Inside foo before eval.....
clk=1
reset=0
out=8

Inside foo after eval.....
clk=0
reset=0
out=8
=============yogapriya_rvmyth : New Iteration===========
Instance : 0

Inside foo before eval.....
clk=0
reset=0
out=8

Inside foo after eval.....
clk=1
reset=0
out=8
=============yogapriya_rvmyth : New Iteration===========
Instance : 0

Inside foo before eval.....
clk=1
reset=0
out=8

Inside foo after eval.....
clk=1
reset=0
out=8
=============yogapriya_rvmyth : New Iteration===========
Instance : 0

Inside foo before eval.....
clk=1
reset=0
out=8

Inside foo after eval.....
clk=0
reset=0
out=8
=============yogapriya_rvmyth : New Iteration===========
Instance : 0

Inside foo before eval.....
clk=0
reset=0
out=8

Inside foo after eval.....
clk=1
reset=0
out=9
=============yogapriya_rvmyth : New Iteration===========
Instance : 0

Inside foo before eval.....
clk=1
reset=0
out=9

Inside foo after eval.....
clk=1
reset=0
out=9
=============yogapriya_rvmyth : New Iteration===========
Instance : 0

Inside foo before eval.....
clk=1
reset=0
out=9

Inside foo after eval.....
clk=0
reset=0
out=9
=============yogapriya_rvmyth : New Iteration===========
Instance : 0

Inside foo before eval.....
clk=0
reset=0
out=9

Inside foo after eval.....
clk=1
reset=0
out=9
=============yogapriya_rvmyth : New Iteration===========
Instance : 0

Inside foo before eval.....
clk=1
reset=0
out=9

Inside foo after eval.....
clk=1
reset=0
out=9
=============yogapriya_rvmyth : New Iteration===========
Instance : 0

Inside foo before eval.....
clk=1
reset=0
out=9

Inside foo after eval.....
clk=0
reset=0
out=9
=============yogapriya_rvmyth : New Iteration===========
Instance : 0

Inside foo before eval.....
clk=0
reset=0
out=9

Inside foo after eval.....
clk=1
reset=0
out=9
=============yogapriya_rvmyth : New Iteration===========
Instance : 0

Inside foo before eval.....
clk=1
reset=0
out=9

Inside foo after eval.....
clk=1
reset=0
out=9
=============yogapriya_rvmyth : New Iteration===========
Instance : 0

Inside foo before eval.....
clk=1
reset=0
out=9

Inside foo after eval.....
clk=0
reset=0
out=9
=============yogapriya_rvmyth : New Iteration===========
Instance : 0

Inside foo before eval.....
clk=0
reset=0
out=9

Inside foo after eval.....
clk=1
reset=0
out=9
=============yogapriya_rvmyth : New Iteration===========
Instance : 0

Inside foo before eval.....
clk=1
reset=0
out=9

Inside foo after eval.....
clk=1
reset=0
out=9
=============yogapriya_rvmyth : New Iteration===========
Instance : 0

Inside foo before eval.....
clk=1
reset=0
out=9

Inside foo after eval.....
clk=0
reset=0
out=9
=============yogapriya_rvmyth : New Iteration===========
Instance : 0

Inside foo before eval.....
clk=0
reset=0
out=9

Inside foo after eval.....
clk=1
reset=0
out=10
=============yogapriya_rvmyth : New Iteration===========
Instance : 0

Inside foo before eval.....
clk=1
reset=0
out=10

Inside foo after eval.....
clk=1
reset=0
out=10
=============yogapriya_rvmyth : New Iteration===========
Instance : 0

Inside foo before eval.....
clk=1
reset=0
out=10

Inside foo after eval.....
clk=0
reset=0
out=10
=============yogapriya_rvmyth : New Iteration===========
Instance : 0

Inside foo before eval.....
clk=0
reset=0
out=10

Inside foo after eval.....
clk=1
reset=0
out=10
=============yogapriya_rvmyth : New Iteration===========
Instance : 0

Inside foo before eval.....
clk=1
reset=0
out=10

Inside foo after eval.....
clk=1
reset=0
out=10
=============yogapriya_rvmyth : New Iteration===========
Instance : 0

Inside foo before eval.....
clk=1
reset=0
out=10

Inside foo after eval.....
clk=0
reset=0
out=10
=============yogapriya_rvmyth : New Iteration===========
Instance : 0

Inside foo before eval.....
clk=0
reset=0
out=10

Inside foo after eval.....
clk=1
reset=0
out=10
=============yogapriya_rvmyth : New Iteration===========
Instance : 0

Inside foo before eval.....
clk=1
reset=0
out=10

Inside foo after eval.....
clk=1
reset=0
out=10
=============yogapriya_rvmyth : New Iteration===========
Instance : 0

Inside foo before eval.....
clk=1
reset=0
out=10

Inside foo after eval.....
clk=0
reset=0
out=10
=============yogapriya_rvmyth : New Iteration===========
Instance : 0

Inside foo before eval.....
clk=0
reset=0
out=10

Inside foo after eval.....
clk=1
reset=0
out=10
=============yogapriya_rvmyth : New Iteration===========
Instance : 0

Inside foo before eval.....
clk=1
reset=0
out=10

Inside foo after eval.....
clk=1
reset=0
out=10
=============yogapriya_rvmyth : New Iteration===========
Instance : 0

Inside foo before eval.....
clk=1
reset=0
out=10

Inside foo after eval.....
clk=0
reset=0
out=10
=============yogapriya_rvmyth : New Iteration===========
Instance : 0

Inside foo before eval.....
clk=0
reset=0
out=10

Inside foo after eval.....
clk=1
reset=0
out=11
=============yogapriya_rvmyth : New Iteration===========
Instance : 0

Inside foo before eval.....
clk=1
reset=0
out=11

Inside foo after eval.....
clk=1
reset=0
out=11
=============yogapriya_rvmyth : New Iteration===========
Instance : 0

Inside foo before eval.....
clk=1
reset=0
out=11

Inside foo after eval.....
clk=0
reset=0
out=11
=============yogapriya_rvmyth : New Iteration===========
Instance : 0

Inside foo before eval.....
clk=0
reset=0
out=11

Inside foo after eval.....
clk=1
reset=0
out=11
=============yogapriya_rvmyth : New Iteration===========
Instance : 0

Inside foo before eval.....
clk=1
reset=0
out=11

Inside foo after eval.....
clk=1
reset=0
out=11
=============yogapriya_rvmyth : New Iteration===========
Instance : 0

Inside foo before eval.....
clk=1
reset=0
out=11

Inside foo after eval.....
clk=0
reset=0
out=11
=============yogapriya_rvmyth : New Iteration===========
Instance : 0

Inside foo before eval.....
clk=0
reset=0
out=11

Inside foo after eval.....
clk=1
reset=0
out=11
=============yogapriya_rvmyth : New Iteration===========
Instance : 0

Inside foo before eval.....
clk=1
reset=0
out=11

Inside foo after eval.....
clk=1
reset=0
out=11
=============yogapriya_rvmyth : New Iteration===========
Instance : 0

Inside foo before eval.....
clk=1
reset=0
out=11

Inside foo after eval.....
clk=0
reset=0
out=11
=============yogapriya_rvmyth : New Iteration===========
Instance : 0

Inside foo before eval.....
clk=0
reset=0
out=11

Inside foo after eval.....
clk=1
reset=0
out=11
=============yogapriya_rvmyth : New Iteration===========
Instance : 0

Inside foo before eval.....
clk=1
reset=0
out=11

Inside foo after eval.....
clk=1
reset=0
out=11
=============yogapriya_rvmyth : New Iteration===========
Instance : 0

Inside foo before eval.....
clk=1
reset=0
out=11

Inside foo after eval.....
clk=0
reset=0
out=11
=============yogapriya_rvmyth : New Iteration===========
Instance : 0

Inside foo before eval.....
clk=0
reset=0
out=11

Inside foo after eval.....
clk=1
reset=0
out=12
=============yogapriya_rvmyth : New Iteration===========
Instance : 0

Inside foo before eval.....
clk=1
reset=0
out=12

Inside foo after eval.....
clk=1
reset=0
out=12
=============yogapriya_rvmyth : New Iteration===========
Instance : 0

Inside foo before eval.....
clk=1
reset=0
out=12

Inside foo after eval.....
clk=0
reset=0
out=12
=============yogapriya_rvmyth : New Iteration===========
Instance : 0

Inside foo before eval.....
clk=0
reset=0
out=12

Inside foo after eval.....
clk=1
reset=0
out=12
=============yogapriya_rvmyth : New Iteration===========
Instance : 0

Inside foo before eval.....
clk=1
reset=0
out=12

Inside foo after eval.....
clk=1
reset=0
out=12
=============yogapriya_rvmyth : New Iteration===========
Instance : 0

Inside foo before eval.....
clk=1
reset=0
out=12

Inside foo after eval.....
clk=0
reset=0
out=12
=============yogapriya_rvmyth : New Iteration===========
Instance : 0

Inside foo before eval.....
clk=0
reset=0
out=12

Inside foo after eval.....
clk=1
reset=0
out=12
=============yogapriya_rvmyth : New Iteration===========
Instance : 0

Inside foo before eval.....
clk=1
reset=0
out=12

Inside foo after eval.....
clk=1
reset=0
out=12
=============yogapriya_rvmyth : New Iteration===========
Instance : 0

Inside foo before eval.....
clk=1
reset=0
out=12

Inside foo after eval.....
clk=0
reset=0
out=12
=============yogapriya_rvmyth : New Iteration===========
Instance : 0

Inside foo before eval.....
clk=0
reset=0
out=12

Inside foo after eval.....
clk=1
reset=0
out=12
=============yogapriya_rvmyth : New Iteration===========
Instance : 0

Inside foo before eval.....
clk=1
reset=0
out=12

Inside foo after eval.....
clk=1
reset=0
out=12
=============yogapriya_rvmyth : New Iteration===========
Instance : 0

Inside foo before eval.....
clk=1
reset=0
out=12

Inside foo after eval.....
clk=0
reset=0
out=12
=============yogapriya_rvmyth : New Iteration===========
Instance : 0

Inside foo before eval.....
clk=0
reset=0
out=12

Inside foo after eval.....
clk=1
reset=0
out=13
=============yogapriya_rvmyth : New Iteration===========
Instance : 0

Inside foo before eval.....
clk=1
reset=0
out=13

Inside foo after eval.....
clk=1
reset=0
out=13
=============yogapriya_rvmyth : New Iteration===========
Instance : 0

Inside foo before eval.....
clk=1
reset=0
out=13

Inside foo after eval.....
clk=0
reset=0
out=13
=============yogapriya_rvmyth : New Iteration===========
Instance : 0

Inside foo before eval.....
clk=0
reset=0
out=13

Inside foo after eval.....
clk=1
reset=0
out=13
=============yogapriya_rvmyth : New Iteration===========
Instance : 0

Inside foo before eval.....
clk=1
reset=0
out=13

Inside foo after eval.....
clk=1
reset=0
out=13
=============yogapriya_rvmyth : New Iteration===========
Instance : 0

Inside foo before eval.....
clk=1
reset=0
out=13

Inside foo after eval.....
clk=0
reset=0
out=13
=============yogapriya_rvmyth : New Iteration===========
Instance : 0

Inside foo before eval.....
clk=0
reset=0
out=13

Inside foo after eval.....
clk=1
reset=0
out=13
=============yogapriya_rvmyth : New Iteration===========
Instance : 0

Inside foo before eval.....
clk=1
reset=0
out=13

Inside foo after eval.....
clk=1
reset=0
out=13
=============yogapriya_rvmyth : New Iteration===========
Instance : 0

Inside foo before eval.....
clk=1
reset=0
out=13

Inside foo after eval.....
clk=0
reset=0
out=13
=============yogapriya_rvmyth : New Iteration===========
Instance : 0

Inside foo before eval.....
clk=0
reset=0
out=13

Inside foo after eval.....
clk=1
reset=0
out=13
=============yogapriya_rvmyth : New Iteration===========
Instance : 0

Inside foo before eval.....
clk=1
reset=0
out=13

Inside foo after eval.....
clk=1
reset=0
out=13
=============yogapriya_rvmyth : New Iteration===========
Instance : 0

Inside foo before eval.....
clk=1
reset=0
out=13

Inside foo after eval.....
clk=0
reset=0
out=13
=============yogapriya_rvmyth : New Iteration===========
Instance : 0

Inside foo before eval.....
clk=0
reset=0
out=13

Inside foo after eval.....
clk=1
reset=0
out=14
=============yogapriya_rvmyth : New Iteration===========
Instance : 0

Inside foo before eval.....
clk=1
reset=0
out=14

Inside foo after eval.....
clk=1
reset=0
out=14
=============yogapriya_rvmyth : New Iteration===========
Instance : 0

Inside foo before eval.....
clk=1
reset=0
out=14

Inside foo after eval.....
clk=0
reset=0
out=14
=============yogapriya_rvmyth : New Iteration===========
Instance : 0

Inside foo before eval.....
clk=0
reset=0
out=14

Inside foo after eval.....
clk=1
reset=0
out=14
=============yogapriya_rvmyth : New Iteration===========
Instance : 0

Inside foo before eval.....
clk=1
reset=0
out=14

Inside foo after eval.....
clk=1
reset=0
out=14
=============yogapriya_rvmyth : New Iteration===========
Instance : 0

Inside foo before eval.....
clk=1
reset=0
out=14

Inside foo after eval.....
clk=0
reset=0
out=14
=============yogapriya_rvmyth : New Iteration===========
Instance : 0

Inside foo before eval.....
clk=0
reset=0
out=14

Inside foo after eval.....
clk=1
reset=0
out=14
=============yogapriya_rvmyth : New Iteration===========
Instance : 0

Inside foo before eval.....
clk=1
reset=0
out=14

Inside foo after eval.....
clk=1
reset=0
out=14
=============yogapriya_rvmyth : New Iteration===========
Instance : 0

Inside foo before eval.....
clk=1
reset=0
out=14

Inside foo after eval.....
clk=0
reset=0
out=14
=============yogapriya_rvmyth : New Iteration===========
Instance : 0

Inside foo before eval.....
clk=0
reset=0
out=14

Inside foo after eval.....
clk=1
reset=0
out=14
=============yogapriya_rvmyth : New Iteration===========
Instance : 0

Inside foo before eval.....
clk=1
reset=0
out=14

Inside foo after eval.....
clk=1
reset=0
out=14
=============yogapriya_rvmyth : New Iteration===========
Instance : 0

Inside foo before eval.....
clk=1
reset=0
out=14

Inside foo after eval.....
clk=0
reset=0
out=14
=============yogapriya_rvmyth : New Iteration===========
Instance : 0

Inside foo before eval.....
clk=0
reset=0
out=14

Inside foo after eval.....
clk=1
reset=0
out=15
=============yogapriya_rvmyth : New Iteration===========
Instance : 0

Inside foo before eval.....
clk=1
reset=0
out=15

Inside foo after eval.....
clk=1
reset=0
out=15
=============yogapriya_rvmyth : New Iteration===========
Instance : 0

Inside foo before eval.....
clk=1
reset=0
out=15

Inside foo after eval.....
clk=0
reset=0
out=15
=============yogapriya_rvmyth : New Iteration===========
Instance : 0

Inside foo before eval.....
clk=0
reset=0
out=15

Inside foo after eval.....
clk=1
reset=0
out=15
=============yogapriya_rvmyth : New Iteration===========
Instance : 0

Inside foo before eval.....
clk=1
reset=0
out=15

Inside foo after eval.....
clk=1
reset=0
out=15
=============yogapriya_rvmyth : New Iteration===========
Instance : 0

Inside foo before eval.....
clk=1
reset=0
out=15

Inside foo after eval.....
clk=0
reset=0
out=15
=============yogapriya_rvmyth : New Iteration===========
Instance : 0

Inside foo before eval.....
clk=0
reset=0
out=15

Inside foo after eval.....
clk=1
reset=0
out=15
=============yogapriya_rvmyth : New Iteration===========
Instance : 0

Inside foo before eval.....
clk=1
reset=0
out=15

Inside foo after eval.....
clk=1
reset=0
out=15
=============yogapriya_rvmyth : New Iteration===========
Instance : 0

Inside foo before eval.....
clk=1
reset=0
out=15

Inside foo after eval.....
clk=0
reset=0
out=15
=============yogapriya_rvmyth : New Iteration===========
Instance : 0

Inside foo before eval.....
clk=0
reset=0
out=15

Inside foo after eval.....
clk=1
reset=0
out=15
=============yogapriya_rvmyth : New Iteration===========
Instance : 0

Inside foo before eval.....
clk=1
reset=0
out=15

Inside foo after eval.....
clk=1
reset=0
out=15
=============yogapriya_rvmyth : New Iteration===========
Instance : 0

Inside foo before eval.....
clk=1
reset=0
out=15

Inside foo after eval.....
clk=0
reset=0
out=15
=============yogapriya_rvmyth : New Iteration===========
Instance : 0

Inside foo before eval.....
clk=0
reset=0
out=15

Inside foo after eval.....
clk=1
reset=0
out=16
=============yogapriya_rvmyth : New Iteration===========
Instance : 0

Inside foo before eval.....
clk=1
reset=0
out=16

Inside foo after eval.....
clk=1
reset=0
out=16
=============yogapriya_rvmyth : New Iteration===========
Instance : 0

Inside foo before eval.....
clk=1
reset=0
out=16

Inside foo after eval.....
clk=0
reset=0
out=16
=============yogapriya_rvmyth : New Iteration===========
Instance : 0

Inside foo before eval.....
clk=0
reset=0
out=16

Inside foo after eval.....
clk=1
reset=0
out=16
=============yogapriya_rvmyth : New Iteration===========
Instance : 0

Inside foo before eval.....
clk=1
reset=0
out=16

Inside foo after eval.....
clk=1
reset=0
out=16
=============yogapriya_rvmyth : New Iteration===========
Instance : 0

Inside foo before eval.....
clk=1
reset=0
out=16

Inside foo after eval.....
clk=0
reset=0
out=16
=============yogapriya_rvmyth : New Iteration===========
Instance : 0

Inside foo before eval.....
clk=0
reset=0
out=16

Inside foo after eval.....
clk=1
reset=0
out=16
=============yogapriya_rvmyth : New Iteration===========
Instance : 0

Inside foo before eval.....
clk=1
reset=0
out=16

Inside foo after eval.....
clk=1
reset=0
out=16
=============yogapriya_rvmyth : New Iteration===========
Instance : 0

Inside foo before eval.....
clk=1
reset=0
out=16

Inside foo after eval.....
clk=0
reset=0
out=16
=============yogapriya_rvmyth : New Iteration===========
Instance : 0

Inside foo before eval.....
clk=0
reset=0
out=16

Inside foo after eval.....
clk=1
reset=0
out=16
=============yogapriya_rvmyth : New Iteration===========
Instance : 0

Inside foo before eval.....
clk=1
reset=0
out=16

Inside foo after eval.....
clk=1
reset=0
out=16
=============yogapriya_rvmyth : New Iteration===========
Instance : 0

Inside foo before eval.....
clk=1
reset=0
out=16

Inside foo after eval.....
clk=0
reset=0
out=16
=============yogapriya_rvmyth : New Iteration===========
Instance : 0

Inside foo before eval.....
clk=0
reset=0
out=16

Inside foo after eval.....
clk=1
reset=0
out=17
=============yogapriya_rvmyth : New Iteration===========
Instance : 0

Inside foo before eval.....
clk=1
reset=0
out=17

Inside foo after eval.....
clk=1
reset=0
out=17
=============yogapriya_rvmyth : New Iteration===========
Instance : 0

Inside foo before eval.....
clk=1
reset=0
out=17

Inside foo after eval.....
clk=0
reset=0
out=17
=============yogapriya_rvmyth : New Iteration===========
Instance : 0

Inside foo before eval.....
clk=0
reset=0
out=17

Inside foo after eval.....
clk=1
reset=0
out=17
=============yogapriya_rvmyth : New Iteration===========
Instance : 0

Inside foo before eval.....
clk=1
reset=0
out=17

Inside foo after eval.....
clk=1
reset=0
out=17
=============yogapriya_rvmyth : New Iteration===========
Instance : 0

Inside foo before eval.....
clk=1
reset=0
out=17

Inside foo after eval.....
clk=0
reset=0
out=17
=============yogapriya_rvmyth : New Iteration===========
Instance : 0

Inside foo before eval.....
clk=0
reset=0
out=17

Inside foo after eval.....
clk=1
reset=0
out=17
=============yogapriya_rvmyth : New Iteration===========
Instance : 0

Inside foo before eval.....
clk=1
reset=0
out=17

Inside foo after eval.....
clk=1
reset=0
out=17
=============yogapriya_rvmyth : New Iteration===========
Instance : 0

Inside foo before eval.....
clk=1
reset=0
out=17

Inside foo after eval.....
clk=0
reset=0
out=17
=============yogapriya_rvmyth : New Iteration===========
Instance : 0

Inside foo before eval.....
clk=0
reset=0
out=17

Inside foo after eval.....
clk=1
reset=0
out=17
=============yogapriya_rvmyth : New Iteration===========
Instance : 0

Inside foo before eval.....
clk=1
reset=0
out=17

Inside foo after eval.....
clk=1
reset=0
out=17
=============yogapriya_rvmyth : New Iteration===========
Instance : 0

Inside foo before eval.....
clk=1
reset=0
out=17

Inside foo after eval.....
clk=0
reset=0
out=17
=============yogapriya_rvmyth : New Iteration===========
Instance : 0

Inside foo before eval.....
clk=0
reset=0
out=17

Inside foo after eval.....
clk=1
reset=0
out=18
=============yogapriya_rvmyth : New Iteration===========
Instance : 0

Inside foo before eval.....
clk=1
reset=0
out=18

Inside foo after eval.....
clk=1
reset=0
out=18
=============yogapriya_rvmyth : New Iteration===========
Instance : 0

Inside foo before eval.....
clk=1
reset=0
out=18

Inside foo after eval.....
clk=0
reset=0
out=18
=============yogapriya_rvmyth : New Iteration===========
Instance : 0

Inside foo before eval.....
clk=0
reset=0
out=18

Inside foo after eval.....
clk=1
reset=0
out=18
=============yogapriya_rvmyth : New Iteration===========
Instance : 0

Inside foo before eval.....
clk=1
reset=0
out=18

Inside foo after eval.....
clk=1
reset=0
out=18
=============yogapriya_rvmyth : New Iteration===========
Instance : 0

Inside foo before eval.....
clk=1
reset=0
out=18

Inside foo after eval.....
clk=0
reset=0
out=18
=============yogapriya_rvmyth : New Iteration===========
Instance : 0

Inside foo before eval.....
clk=0
reset=0
out=18

Inside foo after eval.....
clk=1
reset=0
out=18
=============yogapriya_rvmyth : New Iteration===========
Instance : 0

Inside foo before eval.....
clk=1
reset=0
out=18

Inside foo after eval.....
clk=1
reset=0
out=18
=============yogapriya_rvmyth : New Iteration===========
Instance : 0

Inside foo before eval.....
clk=1
reset=0
out=18

Inside foo after eval.....
clk=0
reset=0
out=18
=============yogapriya_rvmyth : New Iteration===========
Instance : 0

Inside foo before eval.....
clk=0
reset=0
out=18

Inside foo after eval.....
clk=1
reset=0
out=18
=============yogapriya_rvmyth : New Iteration===========
Instance : 0

Inside foo before eval.....
clk=1
reset=0
out=18

Inside foo after eval.....
clk=1
reset=0
out=18
=============yogapriya_rvmyth : New Iteration===========
Instance : 0

Inside foo before eval.....
clk=1
reset=0
out=18

Inside foo after eval.....
clk=0
reset=0
out=18
=============yogapriya_rvmyth : New Iteration===========
Instance : 0

Inside foo before eval.....
clk=0
reset=0
out=18

Inside foo after eval.....
clk=1
reset=0
out=19
=============yogapriya_rvmyth : New Iteration===========
Instance : 0

Inside foo before eval.....
clk=1
reset=0
out=19

Inside foo after eval.....
clk=1
reset=0
out=19
=============yogapriya_rvmyth : New Iteration===========
Instance : 0

Inside foo before eval.....
clk=1
reset=0
out=19

Inside foo after eval.....
clk=0
reset=0
out=19
=============yogapriya_rvmyth : New Iteration===========
Instance : 0

Inside foo before eval.....
clk=0
reset=0
out=19

Inside foo after eval.....
clk=1
reset=0
out=19
=============yogapriya_rvmyth : New Iteration===========
Instance : 0

Inside foo before eval.....
clk=1
reset=0
out=19

Inside foo after eval.....
clk=1
reset=0
out=19
=============yogapriya_rvmyth : New Iteration===========
Instance : 0

Inside foo before eval.....
clk=1
reset=0
out=19

Inside foo after eval.....
clk=0
reset=0
out=19
=============yogapriya_rvmyth : New Iteration===========
Instance : 0

Inside foo before eval.....
clk=0
reset=0
out=19

Inside foo after eval.....
clk=1
reset=0
out=19
=============yogapriya_rvmyth : New Iteration===========
Instance : 0

Inside foo before eval.....
clk=1
reset=0
out=19

Inside foo after eval.....
clk=1
reset=0
out=19
=============yogapriya_rvmyth : New Iteration===========
Instance : 0

Inside foo before eval.....
clk=1
reset=0
out=19

Inside foo after eval.....
clk=0
reset=0
out=19
=============yogapriya_rvmyth : New Iteration===========
Instance : 0

Inside foo before eval.....
clk=0
reset=0
out=19

Inside foo after eval.....
clk=1
reset=0
out=19
=============yogapriya_rvmyth : New Iteration===========
Instance : 0

Inside foo before eval.....
clk=1
reset=0
out=19

Inside foo after eval.....
clk=1
reset=0
out=19
=============yogapriya_rvmyth : New Iteration===========
Instance : 0

Inside foo before eval.....
clk=1
reset=0
out=19

Inside foo after eval.....
clk=0
reset=0
out=19
=============yogapriya_rvmyth : New Iteration===========
Instance : 0

Inside foo before eval.....
clk=0
reset=0
out=19

Inside foo after eval.....
clk=1
reset=0
out=20
=============yogapriya_rvmyth : New Iteration===========
Instance : 0

Inside foo before eval.....
clk=1
reset=0
out=20

Inside foo after eval.....
clk=1
reset=0
out=20
=============yogapriya_rvmyth : New Iteration===========
Instance : 0

Inside foo before eval.....
clk=1
reset=0
out=20

Inside foo after eval.....
clk=0
reset=0
out=20
=============yogapriya_rvmyth : New Iteration===========
Instance : 0

Inside foo before eval.....
clk=0
reset=0
out=20

Inside foo after eval.....
clk=1
reset=0
out=20
=============yogapriya_rvmyth : New Iteration===========
Instance : 0

Inside foo before eval.....
clk=1
reset=0
out=20

Inside foo after eval.....
clk=1
reset=0
out=20
=============yogapriya_rvmyth : New Iteration===========
Instance : 0

Inside foo before eval.....
clk=1
reset=0
out=20

Inside foo after eval.....
clk=0
reset=0
out=20
=============yogapriya_rvmyth : New Iteration===========
Instance : 0

Inside foo before eval.....
clk=0
reset=0
out=20

Inside foo after eval.....
clk=1
reset=0
out=20
=============yogapriya_rvmyth : New Iteration===========
Instance : 0

Inside foo before eval.....
clk=1
reset=0
out=20

Inside foo after eval.....
clk=1
reset=0
out=20
=============yogapriya_rvmyth : New Iteration===========
Instance : 0

Inside foo before eval.....
clk=1
reset=0
out=20

Inside foo after eval.....
clk=0
reset=0
out=20
=============yogapriya_rvmyth : New Iteration===========
Instance : 0

Inside foo before eval.....
clk=0
reset=0
out=20

Inside foo after eval.....
clk=1
reset=0
out=20
=============yogapriya_rvmyth : New Iteration===========
Instance : 0

Inside foo before eval.....
clk=1
reset=0
out=20

Inside foo after eval.....
clk=1
reset=0
out=20
=============yogapriya_rvmyth : New Iteration===========
Instance : 0

Inside foo before eval.....
clk=1
reset=0
out=20

Inside foo after eval.....
clk=0
reset=0
out=20
=============yogapriya_rvmyth : New Iteration===========
Instance : 0

Inside foo before eval.....
clk=0
reset=0
out=20

Inside foo after eval.....
clk=1
reset=0
out=21
=============yogapriya_rvmyth : New Iteration===========
Instance : 0

Inside foo before eval.....
clk=1
reset=0
out=21

Inside foo after eval.....
clk=1
reset=0
out=21
=============yogapriya_rvmyth : New Iteration===========
Instance : 0

Inside foo before eval.....
clk=1
reset=0
out=21

Inside foo after eval.....
clk=0
reset=0
out=21
=============yogapriya_rvmyth : New Iteration===========
Instance : 0

Inside foo before eval.....
clk=0
reset=0
out=21

Inside foo after eval.....
clk=1
reset=0
out=21
=============yogapriya_rvmyth : New Iteration===========
Instance : 0

Inside foo before eval.....
clk=1
reset=0
out=21

Inside foo after eval.....
clk=1
reset=0
out=21
=============yogapriya_rvmyth : New Iteration===========
Instance : 0

Inside foo before eval.....
clk=1
reset=0
out=21

Inside foo after eval.....
clk=0
reset=0
out=21
=============yogapriya_rvmyth : New Iteration===========
Instance : 0

Inside foo before eval.....
clk=0
reset=0
out=21

Inside foo after eval.....
clk=1
reset=0
out=21
=============yogapriya_rvmyth : New Iteration===========
Instance : 0

Inside foo before eval.....
clk=1
reset=0
out=21

Inside foo after eval.....
clk=1
reset=0
out=21
=============yogapriya_rvmyth : New Iteration===========
Instance : 0

Inside foo before eval.....
clk=1
reset=0
out=21

Inside foo after eval.....
clk=0
reset=0
out=21
=============yogapriya_rvmyth : New Iteration===========
Instance : 0

Inside foo before eval.....
clk=0
reset=0
out=21

Inside foo after eval.....
clk=1
reset=0
out=21
=============yogapriya_rvmyth : New Iteration===========
Instance : 0

Inside foo before eval.....
clk=1
reset=0
out=21

Inside foo after eval.....
clk=1
reset=0
out=21
=============yogapriya_rvmyth : New Iteration===========
Instance : 0

Inside foo before eval.....
clk=1
reset=0
out=21

Inside foo after eval.....
clk=0
reset=0
out=21
=============yogapriya_rvmyth : New Iteration===========
Instance : 0

Inside foo before eval.....
clk=0
reset=0
out=21

Inside foo after eval.....
clk=1
reset=0
out=22
=============yogapriya_rvmyth : New Iteration===========
Instance : 0

Inside foo before eval.....
clk=1
reset=0
out=22

Inside foo after eval.....
clk=1
reset=0
out=22
=============yogapriya_rvmyth : New Iteration===========
Instance : 0

Inside foo before eval.....
clk=1
reset=0
out=22

Inside foo after eval.....
clk=0
reset=0
out=22
=============yogapriya_rvmyth : New Iteration===========
Instance : 0

Inside foo before eval.....
clk=0
reset=0
out=22

Inside foo after eval.....
clk=1
reset=0
out=22
=============yogapriya_rvmyth : New Iteration===========
Instance : 0

Inside foo before eval.....
clk=1
reset=0
out=22

Inside foo after eval.....
clk=1
reset=0
out=22
=============yogapriya_rvmyth : New Iteration===========
Instance : 0

Inside foo before eval.....
clk=1
reset=0
out=22

Inside foo after eval.....
clk=0
reset=0
out=22
=============yogapriya_rvmyth : New Iteration===========
Instance : 0

Inside foo before eval.....
clk=0
reset=0
out=22

Inside foo after eval.....
clk=1
reset=0
out=22
=============yogapriya_rvmyth : New Iteration===========
Instance : 0

Inside foo before eval.....
clk=1
reset=0
out=22

Inside foo after eval.....
clk=1
reset=0
out=22
=============yogapriya_rvmyth : New Iteration===========
Instance : 0

Inside foo before eval.....
clk=1
reset=0
out=22

Inside foo after eval.....
clk=0
reset=0
out=22
=============yogapriya_rvmyth : New Iteration===========
Instance : 0

Inside foo before eval.....
clk=0
reset=0
out=22

Inside foo after eval.....
clk=1
reset=0
out=22
=============yogapriya_rvmyth : New Iteration===========
Instance : 0

Inside foo before eval.....
clk=1
reset=0
out=22

Inside foo after eval.....
clk=1
reset=0
out=22
=============yogapriya_rvmyth : New Iteration===========
Instance : 0

Inside foo before eval.....
clk=1
reset=0
out=22

Inside foo after eval.....
clk=0
reset=0
out=22
=============yogapriya_rvmyth : New Iteration===========
Instance : 0

Inside foo before eval.....
clk=0
reset=0
out=22

Inside foo after eval.....
clk=1
reset=0
out=23
=============yogapriya_rvmyth : New Iteration===========
Instance : 0

Inside foo before eval.....
clk=1
reset=0
out=23

Inside foo after eval.....
clk=1
reset=0
out=23
=============yogapriya_rvmyth : New Iteration===========
Instance : 0

Inside foo before eval.....
clk=1
reset=0
out=23

Inside foo after eval.....
clk=0
reset=0
out=23
=============yogapriya_rvmyth : New Iteration===========
Instance : 0

Inside foo before eval.....
clk=0
reset=0
out=23

Inside foo after eval.....
clk=1
reset=0
out=23
=============yogapriya_rvmyth : New Iteration===========
Instance : 0

Inside foo before eval.....
clk=1
reset=0
out=23

Inside foo after eval.....
clk=1
reset=0
out=23
=============yogapriya_rvmyth : New Iteration===========
Instance : 0

Inside foo before eval.....
clk=1
reset=0
out=23

Inside foo after eval.....
clk=0
reset=0
out=23
=============yogapriya_rvmyth : New Iteration===========
Instance : 0

Inside foo before eval.....
clk=0
reset=0
out=23

Inside foo after eval.....
clk=1
reset=0
out=23
=============yogapriya_rvmyth : New Iteration===========
Instance : 0

Inside foo before eval.....
clk=1
reset=0
out=23

Inside foo after eval.....
clk=1
reset=0
out=23
=============yogapriya_rvmyth : New Iteration===========
Instance : 0

Inside foo before eval.....
clk=1
reset=0
out=23

Inside foo after eval.....
clk=0
reset=0
out=23
=============yogapriya_rvmyth : New Iteration===========
Instance : 0

Inside foo before eval.....
clk=0
reset=0
out=23

Inside foo after eval.....
clk=1
reset=0
out=23
=============yogapriya_rvmyth : New Iteration===========
Instance : 0

Inside foo before eval.....
clk=1
reset=0
out=23

Inside foo after eval.....
clk=1
reset=0
out=23
=============yogapriya_rvmyth : New Iteration===========
Instance : 0

Inside foo before eval.....
clk=1
reset=0
out=23

Inside foo after eval.....
clk=0
reset=0
out=23
=============yogapriya_rvmyth : New Iteration===========
Instance : 0

Inside foo before eval.....
clk=0
reset=0
out=23

Inside foo after eval.....
clk=1
reset=0
out=24
=============yogapriya_rvmyth : New Iteration===========
Instance : 0

Inside foo before eval.....
clk=1
reset=0
out=24

Inside foo after eval.....
clk=1
reset=0
out=24
=============yogapriya_rvmyth : New Iteration===========
Instance : 0

Inside foo before eval.....
clk=1
reset=0
out=24

Inside foo after eval.....
clk=0
reset=0
out=24
=============yogapriya_rvmyth : New Iteration===========
Instance : 0

Inside foo before eval.....
clk=0
reset=0
out=24

Inside foo after eval.....
clk=1
reset=0
out=24
=============yogapriya_rvmyth : New Iteration===========
Instance : 0

Inside foo before eval.....
clk=1
reset=0
out=24

Inside foo after eval.....
clk=1
reset=0
out=24
=============yogapriya_rvmyth : New Iteration===========
Instance : 0

Inside foo before eval.....
clk=1
reset=0
out=24

Inside foo after eval.....
clk=0
reset=0
out=24
=============yogapriya_rvmyth : New Iteration===========
Instance : 0

Inside foo before eval.....
clk=0
reset=0
out=24

Inside foo after eval.....
clk=1
reset=0
out=24
=============yogapriya_rvmyth : New Iteration===========
Instance : 0

Inside foo before eval.....
clk=1
reset=0
out=24

Inside foo after eval.....
clk=1
reset=0
out=24
=============yogapriya_rvmyth : New Iteration===========
Instance : 0

Inside foo before eval.....
clk=1
reset=0
out=24

Inside foo after eval.....
clk=0
reset=0
out=24
=============yogapriya_rvmyth : New Iteration===========
Instance : 0

Inside foo before eval.....
clk=0
reset=0
out=24

Inside foo after eval.....
clk=1
reset=0
out=24
=============yogapriya_rvmyth : New Iteration===========
Instance : 0

Inside foo before eval.....
clk=1
reset=0
out=24

Inside foo after eval.....
clk=1
reset=0
out=24
=============yogapriya_rvmyth : New Iteration===========
Instance : 0

Inside foo before eval.....
clk=1
reset=0
out=24

Inside foo after eval.....
clk=0
reset=0
out=24
=============yogapriya_rvmyth : New Iteration===========
Instance : 0

Inside foo before eval.....
clk=0
reset=0
out=24

Inside foo after eval.....
clk=1
reset=0
out=25
=============yogapriya_rvmyth : New Iteration===========
Instance : 0

Inside foo before eval.....
clk=1
reset=0
out=25

Inside foo after eval.....
clk=1
reset=0
out=25
=============yogapriya_rvmyth : New Iteration===========
Instance : 0

Inside foo before eval.....
clk=1
reset=0
out=25

Inside foo after eval.....
clk=0
reset=0
out=25
=============yogapriya_rvmyth : New Iteration===========
Instance : 0

Inside foo before eval.....
clk=0
reset=0
out=25

Inside foo after eval.....
clk=1
reset=0
out=25
=============yogapriya_rvmyth : New Iteration===========
Instance : 0

Inside foo before eval.....
clk=1
reset=0
out=25

Inside foo after eval.....
clk=1
reset=0
out=25
=============yogapriya_rvmyth : New Iteration===========
Instance : 0

Inside foo before eval.....
clk=1
reset=0
out=25

Inside foo after eval.....
clk=0
reset=0
out=25
=============yogapriya_rvmyth : New Iteration===========
Instance : 0

Inside foo before eval.....
clk=0
reset=0
out=25

Inside foo after eval.....
clk=1
reset=0
out=25
=============yogapriya_rvmyth : New Iteration===========
Instance : 0

Inside foo before eval.....
clk=1
reset=0
out=25

Inside foo after eval.....
clk=1
reset=0
out=25
=============yogapriya_rvmyth : New Iteration===========
Instance : 0

Inside foo before eval.....
clk=1
reset=0
out=25

Inside foo after eval.....
clk=0
reset=0
out=25
=============yogapriya_rvmyth : New Iteration===========
Instance : 0

Inside foo before eval.....
clk=0
reset=0
out=25

Inside foo after eval.....
clk=1
reset=0
out=25
=============yogapriya_rvmyth : New Iteration===========
Instance : 0

Inside foo before eval.....
clk=1
reset=0
out=25

Inside foo after eval.....
clk=1
reset=0
out=25
=============yogapriya_rvmyth : New Iteration===========
Instance : 0

Inside foo before eval.....
clk=1
reset=0
out=25

Inside foo after eval.....
clk=0
reset=0
out=25
=============yogapriya_rvmyth : New Iteration===========
Instance : 0

Inside foo before eval.....
clk=0
reset=0
out=25

Inside foo after eval.....
clk=1
reset=0
out=26
=============yogapriya_rvmyth : New Iteration===========
Instance : 0

Inside foo before eval.....
clk=1
reset=0
out=26

Inside foo after eval.....
clk=1
reset=0
out=26
=============yogapriya_rvmyth : New Iteration===========
Instance : 0

Inside foo before eval.....
clk=1
reset=0
out=26

Inside foo after eval.....
clk=0
reset=0
out=26
=============yogapriya_rvmyth : New Iteration===========
Instance : 0

Inside foo before eval.....
clk=0
reset=0
out=26

Inside foo after eval.....
clk=1
reset=0
out=26
=============yogapriya_rvmyth : New Iteration===========
Instance : 0

Inside foo before eval.....
clk=1
reset=0
out=26

Inside foo after eval.....
clk=1
reset=0
out=26
=============yogapriya_rvmyth : New Iteration===========
Instance : 0

Inside foo before eval.....
clk=1
reset=0
out=26

Inside foo after eval.....
clk=0
reset=0
out=26
=============yogapriya_rvmyth : New Iteration===========
Instance : 0

Inside foo before eval.....
clk=0
reset=0
out=26

Inside foo after eval.....
clk=1
reset=0
out=26
=============yogapriya_rvmyth : New Iteration===========
Instance : 0

Inside foo before eval.....
clk=1
reset=0
out=26

Inside foo after eval.....
clk=1
reset=0
out=26
=============yogapriya_rvmyth : New Iteration===========
Instance : 0

Inside foo before eval.....
clk=1
reset=0
out=26

Inside foo after eval.....
clk=0
reset=0
out=26
=============yogapriya_rvmyth : New Iteration===========
Instance : 0

Inside foo before eval.....
clk=0
reset=0
out=26

Inside foo after eval.....
clk=1
reset=0
out=26
=============yogapriya_rvmyth : New Iteration===========
Instance : 0

Inside foo before eval.....
clk=1
reset=0
out=26

Inside foo after eval.....
clk=1
reset=0
out=26
=============yogapriya_rvmyth : New Iteration===========
Instance : 0

Inside foo before eval.....
clk=1
reset=0
out=26

Inside foo after eval.....
clk=0
reset=0
out=26
=============yogapriya_rvmyth : New Iteration===========
Instance : 0

Inside foo before eval.....
clk=0
reset=0
out=26

Inside foo after eval.....
clk=1
reset=0
out=27
=============yogapriya_rvmyth : New Iteration===========
Instance : 0

Inside foo before eval.....
clk=1
reset=0
out=27

Inside foo after eval.....
clk=1
reset=0
out=27
=============yogapriya_rvmyth : New Iteration===========
Instance : 0

Inside foo before eval.....
clk=1
reset=0
out=27

Inside foo after eval.....
clk=0
reset=0
out=27
=============yogapriya_rvmyth : New Iteration===========
Instance : 0

Inside foo before eval.....
clk=0
reset=0
out=27

Inside foo after eval.....
clk=1
reset=0
out=27
=============yogapriya_rvmyth : New Iteration===========
Instance : 0

Inside foo before eval.....
clk=1
reset=0
out=27

Inside foo after eval.....
clk=1
reset=0
out=27
=============yogapriya_rvmyth : New Iteration===========
Instance : 0

Inside foo before eval.....
clk=1
reset=0
out=27

Inside foo after eval.....
clk=0
reset=0
out=27
=============yogapriya_rvmyth : New Iteration===========
Instance : 0

Inside foo before eval.....
clk=0
reset=0
out=27

Inside foo after eval.....
clk=1
reset=0
out=27
=============yogapriya_rvmyth : New Iteration===========
Instance : 0

Inside foo before eval.....
clk=1
reset=0
out=27

Inside foo after eval.....
clk=1
reset=0
out=27
=============yogapriya_rvmyth : New Iteration===========
Instance : 0

Inside foo before eval.....
clk=1
reset=0
out=27

Inside foo after eval.....
clk=0
reset=0
out=27
=============yogapriya_rvmyth : New Iteration===========
Instance : 0

Inside foo before eval.....
clk=0
reset=0
out=27

Inside foo after eval.....
clk=1
reset=0
out=27
=============yogapriya_rvmyth : New Iteration===========
Instance : 0

Inside foo before eval.....
clk=1
reset=0
out=27

Inside foo after eval.....
clk=1
reset=0
out=27
=============yogapriya_rvmyth : New Iteration===========
Instance : 0

Inside foo before eval.....
clk=1
reset=0
out=27

Inside foo after eval.....
clk=0
reset=0
out=27
=============yogapriya_rvmyth : New Iteration===========
Instance : 0

Inside foo before eval.....
clk=0
reset=0
out=27

Inside foo after eval.....
clk=1
reset=0
out=28
=============yogapriya_rvmyth : New Iteration===========
Instance : 0

Inside foo before eval.....
clk=1
reset=0
out=28

Inside foo after eval.....
clk=1
reset=0
out=28
=============yogapriya_rvmyth : New Iteration===========
Instance : 0

Inside foo before eval.....
clk=1
reset=0
out=28

Inside foo after eval.....
clk=0
reset=0
out=28
=============yogapriya_rvmyth : New Iteration===========
Instance : 0

Inside foo before eval.....
clk=0
reset=0
out=28

Inside foo after eval.....
clk=1
reset=0
out=28
=============yogapriya_rvmyth : New Iteration===========
Instance : 0

Inside foo before eval.....
clk=1
reset=0
out=28

Inside foo after eval.....
clk=1
reset=0
out=28
=============yogapriya_rvmyth : New Iteration===========
Instance : 0

Inside foo before eval.....
clk=1
reset=0
out=28

Inside foo after eval.....
clk=0
reset=0
out=28
=============yogapriya_rvmyth : New Iteration===========
Instance : 0

Inside foo before eval.....
clk=0
reset=0
out=28

Inside foo after eval.....
clk=1
reset=0
out=28
=============yogapriya_rvmyth : New Iteration===========
Instance : 0

Inside foo before eval.....
clk=1
reset=0
out=28

Inside foo after eval.....
clk=1
reset=0
out=28
=============yogapriya_rvmyth : New Iteration===========
Instance : 0

Inside foo before eval.....
clk=1
reset=0
out=28

Inside foo after eval.....
clk=0
reset=0
out=28
=============yogapriya_rvmyth : New Iteration===========
Instance : 0

Inside foo before eval.....
clk=0
reset=0
out=28

Inside foo after eval.....
clk=1
reset=0
out=28
=============yogapriya_rvmyth : New Iteration===========
Instance : 0

Inside foo before eval.....
clk=1
reset=0
out=28

Inside foo after eval.....
clk=1
reset=0
out=28
=============yogapriya_rvmyth : New Iteration===========
Instance : 0

Inside foo before eval.....
clk=1
reset=0
out=28

Inside foo after eval.....
clk=0
reset=0
out=28
=============yogapriya_rvmyth : New Iteration===========
Instance : 0

Inside foo before eval.....
clk=0
reset=0
out=28

Inside foo after eval.....
clk=1
reset=0
out=29
=============yogapriya_rvmyth : New Iteration===========
Instance : 0

Inside foo before eval.....
clk=1
reset=0
out=29

Inside foo after eval.....
clk=1
reset=0
out=29
=============yogapriya_rvmyth : New Iteration===========
Instance : 0

Inside foo before eval.....
clk=1
reset=0
out=29

Inside foo after eval.....
clk=0
reset=0
out=29
=============yogapriya_rvmyth : New Iteration===========
Instance : 0

Inside foo before eval.....
clk=0
reset=0
out=29

Inside foo after eval.....
clk=1
reset=0
out=29
=============yogapriya_rvmyth : New Iteration===========
Instance : 0

Inside foo before eval.....
clk=1
reset=0
out=29

Inside foo after eval.....
clk=1
reset=0
out=29
=============yogapriya_rvmyth : New Iteration===========
Instance : 0

Inside foo before eval.....
clk=1
reset=0
out=29

Inside foo after eval.....
clk=0
reset=0
out=29
=============yogapriya_rvmyth : New Iteration===========
Instance : 0

Inside foo before eval.....
clk=0
reset=0
out=29

Inside foo after eval.....
clk=1
reset=0
out=29
=============yogapriya_rvmyth : New Iteration===========
Instance : 0

Inside foo before eval.....
clk=1
reset=0
out=29

Inside foo after eval.....
clk=1
reset=0
out=29
=============yogapriya_rvmyth : New Iteration===========
Instance : 0

Inside foo before eval.....
clk=1
reset=0
out=29

Inside foo after eval.....
clk=0
reset=0
out=29
=============yogapriya_rvmyth : New Iteration===========
Instance : 0

Inside foo before eval.....
clk=0
reset=0
out=29

Inside foo after eval.....
clk=1
reset=0
out=29
=============yogapriya_rvmyth : New Iteration===========
Instance : 0

Inside foo before eval.....
clk=1
reset=0
out=29

Inside foo after eval.....
clk=1
reset=0
out=29
=============yogapriya_rvmyth : New Iteration===========
Instance : 0

Inside foo before eval.....
clk=1
reset=0
out=29

Inside foo after eval.....
clk=0
reset=0
out=29
=============yogapriya_rvmyth : New Iteration===========
Instance : 0

Inside foo before eval.....
clk=0
reset=0
out=29

Inside foo after eval.....
clk=1
reset=0
out=30
=============yogapriya_rvmyth : New Iteration===========
Instance : 0

Inside foo before eval.....
clk=1
reset=0
out=30

Inside foo after eval.....
clk=1
reset=0
out=30
=============yogapriya_rvmyth : New Iteration===========
Instance : 0

Inside foo before eval.....
clk=1
reset=0
out=30

Inside foo after eval.....
clk=0
reset=0
out=30
=============yogapriya_rvmyth : New Iteration===========
Instance : 0

Inside foo before eval.....
clk=0
reset=0
out=30

Inside foo after eval.....
clk=1
reset=0
out=30
=============yogapriya_rvmyth : New Iteration===========
Instance : 0

Inside foo before eval.....
clk=1
reset=0
out=30

Inside foo after eval.....
clk=1
reset=0
out=30
=============yogapriya_rvmyth : New Iteration===========
Instance : 0

Inside foo before eval.....
clk=1
reset=0
out=30

Inside foo after eval.....
clk=0
reset=0
out=30
=============yogapriya_rvmyth : New Iteration===========
Instance : 0

Inside foo before eval.....
clk=0
reset=0
out=30

Inside foo after eval.....
clk=1
reset=0
out=30
=============yogapriya_rvmyth : New Iteration===========
Instance : 0

Inside foo before eval.....
clk=1
reset=0
out=30

Inside foo after eval.....
clk=1
reset=0
out=30
=============yogapriya_rvmyth : New Iteration===========
Instance : 0

Inside foo before eval.....
clk=1
reset=0
out=30

Inside foo after eval.....
clk=0
reset=0
out=30
=============yogapriya_rvmyth : New Iteration===========
Instance : 0

Inside foo before eval.....
clk=0
reset=0
out=30

Inside foo after eval.....
clk=1
reset=0
out=30
=============yogapriya_rvmyth : New Iteration===========
Instance : 0

Inside foo before eval.....
clk=1
reset=0
out=30

Inside foo after eval.....
clk=1
reset=0
out=30
=============yogapriya_rvmyth : New Iteration===========
Instance : 0

Inside foo before eval.....
clk=1
reset=0
out=30

Inside foo after eval.....
clk=0
reset=0
out=30
=============yogapriya_rvmyth : New Iteration===========
Instance : 0

Inside foo before eval.....
clk=0
reset=0
out=30

Inside foo after eval.....
clk=1
reset=0
out=31
=============yogapriya_rvmyth : New Iteration===========
Instance : 0

Inside foo before eval.....
clk=1
reset=0
out=31

Inside foo after eval.....
clk=1
reset=0
out=31
=============yogapriya_rvmyth : New Iteration===========
Instance : 0

Inside foo before eval.....
clk=1
reset=0
out=31

Inside foo after eval.....
clk=0
reset=0
out=31
=============yogapriya_rvmyth : New Iteration===========
Instance : 0

Inside foo before eval.....
clk=0
reset=0
out=31

Inside foo after eval.....
clk=1
reset=0
out=31
=============yogapriya_rvmyth : New Iteration===========
Instance : 0

Inside foo before eval.....
clk=1
reset=0
out=31

Inside foo after eval.....
clk=1
reset=0
out=31
=============yogapriya_rvmyth : New Iteration===========
Instance : 0

Inside foo before eval.....
clk=1
reset=0
out=31

Inside foo after eval.....
clk=0
reset=0
out=31
=============yogapriya_rvmyth : New Iteration===========
Instance : 0

Inside foo before eval.....
clk=0
reset=0
out=31

Inside foo after eval.....
clk=1
reset=0
out=31
=============yogapriya_rvmyth : New Iteration===========
Instance : 0

Inside foo before eval.....
clk=1
reset=0
out=31

Inside foo after eval.....
clk=1
reset=0
out=31
=============yogapriya_rvmyth : New Iteration===========
Instance : 0

Inside foo before eval.....
clk=1
reset=0
out=31

Inside foo after eval.....
clk=0
reset=0
out=31
=============yogapriya_rvmyth : New Iteration===========
Instance : 0

Inside foo before eval.....
clk=0
reset=0
out=31

Inside foo after eval.....
clk=1
reset=0
out=31
=============yogapriya_rvmyth : New Iteration===========
Instance : 0

Inside foo before eval.....
clk=1
reset=0
out=31

Inside foo after eval.....
clk=1
reset=0
out=31
=============yogapriya_rvmyth : New Iteration===========
Instance : 0

Inside foo before eval.....
clk=1
reset=0
out=31

Inside foo after eval.....
clk=0
reset=0
out=31
=============yogapriya_rvmyth : New Iteration===========
Instance : 0

Inside foo before eval.....
clk=0
reset=0
out=31

Inside foo after eval.....
clk=1
reset=0
out=32
=============yogapriya_rvmyth : New Iteration===========
Instance : 0

Inside foo before eval.....
clk=1
reset=0
out=32

Inside foo after eval.....
clk=1
reset=0
out=32
=============yogapriya_rvmyth : New Iteration===========
Instance : 0

Inside foo before eval.....
clk=1
reset=0
out=32

Inside foo after eval.....
clk=0
reset=0
out=32
=============yogapriya_rvmyth : New Iteration===========
Instance : 0

Inside foo before eval.....
clk=0
reset=0
out=32

Inside foo after eval.....
clk=1
reset=0
out=32
=============yogapriya_rvmyth : New Iteration===========
Instance : 0

Inside foo before eval.....
clk=1
reset=0
out=32

Inside foo after eval.....
clk=1
reset=0
out=32
=============yogapriya_rvmyth : New Iteration===========
Instance : 0

Inside foo before eval.....
clk=1
reset=0
out=32

Inside foo after eval.....
clk=0
reset=0
out=32
=============yogapriya_rvmyth : New Iteration===========
Instance : 0

Inside foo before eval.....
clk=0
reset=0
out=32

Inside foo after eval.....
clk=1
reset=0
out=32
=============yogapriya_rvmyth : New Iteration===========
Instance : 0

Inside foo before eval.....
clk=1
reset=0
out=32

Inside foo after eval.....
clk=1
reset=0
out=32
=============yogapriya_rvmyth : New Iteration===========
Instance : 0

Inside foo before eval.....
clk=1
reset=0
out=32

Inside foo after eval.....
clk=0
reset=0
out=32
=============yogapriya_rvmyth : New Iteration===========
Instance : 0

Inside foo before eval.....
clk=0
reset=0
out=32

Inside foo after eval.....
clk=1
reset=0
out=32
=============yogapriya_rvmyth : New Iteration===========
Instance : 0

Inside foo before eval.....
clk=1
reset=0
out=32

Inside foo after eval.....
clk=1
reset=0
out=32
=============yogapriya_rvmyth : New Iteration===========
Instance : 0

Inside foo before eval.....
clk=1
reset=0
out=32

Inside foo after eval.....
clk=0
reset=0
out=32
=============yogapriya_rvmyth : New Iteration===========
Instance : 0

Inside foo before eval.....
clk=0
reset=0
out=32

Inside foo after eval.....
clk=1
reset=0
out=33
=============yogapriya_rvmyth : New Iteration===========
Instance : 0

Inside foo before eval.....
clk=1
reset=0
out=33

Inside foo after eval.....
clk=1
reset=0
out=33
=============yogapriya_rvmyth : New Iteration===========
Instance : 0

Inside foo before eval.....
clk=1
reset=0
out=33

Inside foo after eval.....
clk=0
reset=0
out=33
=============yogapriya_rvmyth : New Iteration===========
Instance : 0

Inside foo before eval.....
clk=0
reset=0
out=33

Inside foo after eval.....
clk=1
reset=0
out=33
=============yogapriya_rvmyth : New Iteration===========
Instance : 0

Inside foo before eval.....
clk=1
reset=0
out=33

Inside foo after eval.....
clk=1
reset=0
out=33
=============yogapriya_rvmyth : New Iteration===========
Instance : 0

Inside foo before eval.....
clk=1
reset=0
out=33

Inside foo after eval.....
clk=0
reset=0
out=33
=============yogapriya_rvmyth : New Iteration===========
Instance : 0

Inside foo before eval.....
clk=0
reset=0
out=33

Inside foo after eval.....
clk=1
reset=0
out=33
=============yogapriya_rvmyth : New Iteration===========
Instance : 0

Inside foo before eval.....
clk=1
reset=0
out=33

Inside foo after eval.....
clk=1
reset=0
out=33
=============yogapriya_rvmyth : New Iteration===========
Instance : 0

Inside foo before eval.....
clk=1
reset=0
out=33

Inside foo after eval.....
clk=0
reset=0
out=33
=============yogapriya_rvmyth : New Iteration===========
Instance : 0

Inside foo before eval.....
clk=0
reset=0
out=33

Inside foo after eval.....
clk=1
reset=0
out=33
=============yogapriya_rvmyth : New Iteration===========
Instance : 0

Inside foo before eval.....
clk=1
reset=0
out=33

Inside foo after eval.....
clk=1
reset=0
out=33
=============yogapriya_rvmyth : New Iteration===========
Instance : 0

Inside foo before eval.....
clk=1
reset=0
out=33

Inside foo after eval.....
clk=0
reset=0
out=33
=============yogapriya_rvmyth : New Iteration===========
Instance : 0

Inside foo before eval.....
clk=0
reset=0
out=33

Inside foo after eval.....
clk=1
reset=0
out=34
=============yogapriya_rvmyth : New Iteration===========
Instance : 0

Inside foo before eval.....
clk=1
reset=0
out=34

Inside foo after eval.....
clk=1
reset=0
out=34
=============yogapriya_rvmyth : New Iteration===========
Instance : 0

Inside foo before eval.....
clk=1
reset=0
out=34

Inside foo after eval.....
clk=0
reset=0
out=34
=============yogapriya_rvmyth : New Iteration===========
Instance : 0

Inside foo before eval.....
clk=0
reset=0
out=34

Inside foo after eval.....
clk=1
reset=0
out=34
=============yogapriya_rvmyth : New Iteration===========
Instance : 0

Inside foo before eval.....
clk=1
reset=0
out=34

Inside foo after eval.....
clk=1
reset=0
out=34
=============yogapriya_rvmyth : New Iteration===========
Instance : 0

Inside foo before eval.....
clk=1
reset=0
out=34

Inside foo after eval.....
clk=0
reset=0
out=34
=============yogapriya_rvmyth : New Iteration===========
Instance : 0

Inside foo before eval.....
clk=0
reset=0
out=34

Inside foo after eval.....
clk=1
reset=0
out=34
=============yogapriya_rvmyth : New Iteration===========
Instance : 0

Inside foo before eval.....
clk=1
reset=0
out=34

Inside foo after eval.....
clk=1
reset=0
out=34
=============yogapriya_rvmyth : New Iteration===========
Instance : 0

Inside foo before eval.....
clk=1
reset=0
out=34

Inside foo after eval.....
clk=0
reset=0
out=34
=============yogapriya_rvmyth : New Iteration===========
Instance : 0

Inside foo before eval.....
clk=0
reset=0
out=34

Inside foo after eval.....
clk=1
reset=0
out=34
=============yogapriya_rvmyth : New Iteration===========
Instance : 0

Inside foo before eval.....
clk=1
reset=0
out=34

Inside foo after eval.....
clk=1
reset=0
out=34
=============yogapriya_rvmyth : New Iteration===========
Instance : 0

Inside foo before eval.....
clk=1
reset=0
out=34

Inside foo after eval.....
clk=0
reset=0
out=34
=============yogapriya_rvmyth : New Iteration===========
Instance : 0

Inside foo before eval.....
clk=0
reset=0
out=34

Inside foo after eval.....
clk=1
reset=0
out=35
=============yogapriya_rvmyth : New Iteration===========
Instance : 0

Inside foo before eval.....
clk=1
reset=0
out=35

Inside foo after eval.....
clk=1
reset=0
out=35
=============yogapriya_rvmyth : New Iteration===========
Instance : 0

Inside foo before eval.....
clk=1
reset=0
out=35

Inside foo after eval.....
clk=0
reset=0
out=35
=============yogapriya_rvmyth : New Iteration===========
Instance : 0

Inside foo before eval.....
clk=0
reset=0
out=35

Inside foo after eval.....
clk=1
reset=0
out=35
=============yogapriya_rvmyth : New Iteration===========
Instance : 0

Inside foo before eval.....
clk=1
reset=0
out=35

Inside foo after eval.....
clk=1
reset=0
out=35
=============yogapriya_rvmyth : New Iteration===========
Instance : 0

Inside foo before eval.....
clk=1
reset=0
out=35

Inside foo after eval.....
clk=0
reset=0
out=35
=============yogapriya_rvmyth : New Iteration===========
Instance : 0

Inside foo before eval.....
clk=0
reset=0
out=35

Inside foo after eval.....
clk=1
reset=0
out=35
=============yogapriya_rvmyth : New Iteration===========
Instance : 0

Inside foo before eval.....
clk=1
reset=0
out=35

Inside foo after eval.....
clk=1
reset=0
out=35
=============yogapriya_rvmyth : New Iteration===========
Instance : 0

Inside foo before eval.....
clk=1
reset=0
out=35

Inside foo after eval.....
clk=0
reset=0
out=35
=============yogapriya_rvmyth : New Iteration===========
Instance : 0

Inside foo before eval.....
clk=0
reset=0
out=35

Inside foo after eval.....
clk=1
reset=0
out=35
=============yogapriya_rvmyth : New Iteration===========
Instance : 0

Inside foo before eval.....
clk=1
reset=0
out=35

Inside foo after eval.....
clk=1
reset=0
out=35
=============yogapriya_rvmyth : New Iteration===========
Instance : 0

Inside foo before eval.....
clk=1
reset=0
out=35

Inside foo after eval.....
clk=0
reset=0
out=35
=============yogapriya_rvmyth : New Iteration===========
Instance : 0

Inside foo before eval.....
clk=0
reset=0
out=35

Inside foo after eval.....
clk=1
reset=0
out=36
=============yogapriya_rvmyth : New Iteration===========
Instance : 0

Inside foo before eval.....
clk=1
reset=0
out=36

Inside foo after eval.....
clk=1
reset=0
out=36
=============yogapriya_rvmyth : New Iteration===========
Instance : 0

Inside foo before eval.....
clk=1
reset=0
out=36

Inside foo after eval.....
clk=0
reset=0
out=36
=============yogapriya_rvmyth : New Iteration===========
Instance : 0

Inside foo before eval.....
clk=0
reset=0
out=36

Inside foo after eval.....
clk=1
reset=0
out=36
=============yogapriya_rvmyth : New Iteration===========
Instance : 0

Inside foo before eval.....
clk=1
reset=0
out=36

Inside foo after eval.....
clk=1
reset=0
out=36
=============yogapriya_rvmyth : New Iteration===========
Instance : 0

Inside foo before eval.....
clk=1
reset=0
out=36

Inside foo after eval.....
clk=0
reset=0
out=36
=============yogapriya_rvmyth : New Iteration===========
Instance : 0

Inside foo before eval.....
clk=0
reset=0
out=36

Inside foo after eval.....
clk=1
reset=0
out=36
[...]
Instance : 1

Inside foo before eval.....
clk=1
reset=0
out=107

Inside foo after eval.....
clk=0
reset=0
out=107
=============yogapriya_rvmyth : New Iteration===========
Instance : 1

Inside foo before eval.....
clk=0
reset=0
out=107

Inside foo after eval.....
clk=1
reset=0
out=107
=============yogapriya_rvmyth : New Iteration===========
Instance : 1

Inside foo before eval.....
clk=1
reset=0
out=107

Inside foo after eval.....
clk=1
reset=0
out=107
=============yogapriya_rvmyth : New Iteration===========
Instance : 1

Inside foo before eval.....
clk=1
reset=0
out=107

Inside foo after eval.....
clk=0
reset=0
out=107
=============yogapriya_rvmyth : New Iteration===========
Instance : 1

Inside foo before eval.....
clk=0
reset=0
out=107

Inside foo after eval.....
clk=1
reset=0
out=107
=============yogapriya_rvmyth : New Iteration===========
Instance : 1

Inside foo before eval.....
clk=1
reset=0
out=107

Inside foo after eval.....
clk=1
reset=0
out=107
=============yogapriya_rvmyth : New Iteration===========
Instance : 1

Inside foo before eval.....
clk=1
reset=0
out=107

Inside foo after eval.....
clk=0
reset=0
out=107
=============yogapriya_rvmyth : New Iteration===========
Instance : 1

Inside foo before eval.....
clk=0
reset=0
out=107

Inside foo after eval.....
clk=1
reset=0
out=108
=============yogapriya_rvmyth : New Iteration===========
Instance : 1

Inside foo before eval.....
clk=1
reset=0
out=108

Inside foo after eval.....
clk=1
reset=0
out=108
=============yogapriya_rvmyth : New Iteration===========
Instance : 1

Inside foo before eval.....
clk=1
reset=0
out=108

Inside foo after eval.....
clk=0
reset=0
out=108
=============yogapriya_rvmyth : New Iteration===========
Instance : 1

Inside foo before eval.....
clk=0
reset=0
out=108

Inside foo after eval.....
clk=1
reset=0
out=108
=============yogapriya_rvmyth : New Iteration===========
Instance : 1

Inside foo before eval.....
clk=1
reset=0
out=108

Inside foo after eval.....
clk=1
reset=0
out=108
=============yogapriya_rvmyth : New Iteration===========
Instance : 1

Inside foo before eval.....
clk=1
reset=0
out=108

Inside foo after eval.....
clk=0
reset=0
out=108
=============yogapriya_rvmyth : New Iteration===========
Instance : 1

Inside foo before eval.....
clk=0
reset=0
out=108

Inside foo after eval.....
clk=1
reset=0
out=108
=============yogapriya_rvmyth : New Iteration===========
Instance : 1

Inside foo before eval.....
clk=1
reset=0
out=108

Inside foo after eval.....
clk=1
reset=0
out=108
=============yogapriya_rvmyth : New Iteration===========
Instance : 1

Inside foo before eval.....
clk=1
reset=0
out=108

Inside foo after eval.....
clk=0
reset=0
out=108
=============yogapriya_rvmyth : New Iteration===========
Instance : 1

Inside foo before eval.....
clk=0
reset=0
out=108

Inside foo after eval.....
clk=1
reset=0
out=108
=============yogapriya_rvmyth : New Iteration===========
Instance : 1

Inside foo before eval.....
clk=1
reset=0
out=108

Inside foo after eval.....
clk=1
reset=0
out=108
=============yogapriya_rvmyth : New Iteration===========
Instance : 1

Inside foo before eval.....
clk=1
reset=0
out=108

Inside foo after eval.....
clk=0
reset=0
out=108
=============yogapriya_rvmyth : New Iteration===========
Instance : 1

Inside foo before eval.....
clk=0
reset=0
out=108

Inside foo after eval.....
clk=1
reset=0
out=109
=============yogapriya_rvmyth : New Iteration===========
Instance : 1

Inside foo before eval.....
clk=1
reset=0
out=109

Inside foo after eval.....
clk=1
reset=0
out=109
=============yogapriya_rvmyth : New Iteration===========
Instance : 1

Inside foo before eval.....
clk=1
reset=0
out=109

Inside foo after eval.....
clk=0
reset=0
out=109
=============yogapriya_rvmyth : New Iteration===========
Instance : 1

Inside foo before eval.....
clk=0
reset=0
out=109

Inside foo after eval.....
clk=1
reset=0
out=109
=============yogapriya_rvmyth : New Iteration===========
Instance : 1

Inside foo before eval.....
clk=1
reset=0
out=109

Inside foo after eval.....
clk=1
reset=0
out=109
=============yogapriya_rvmyth : New Iteration===========
Instance : 1

Inside foo before eval.....
clk=1
reset=0
out=109

Inside foo after eval.....
clk=0
reset=0
out=109
=============yogapriya_rvmyth : New Iteration===========
Instance : 1

Inside foo before eval.....
clk=0
reset=0
out=109

Inside foo after eval.....
clk=1
reset=0
out=109
=============yogapriya_rvmyth : New Iteration===========
Instance : 1

Inside foo before eval.....
clk=1
reset=0
out=109

Inside foo after eval.....
clk=1
reset=0
out=109
=============yogapriya_rvmyth : New Iteration===========
Instance : 1

Inside foo before eval.....
clk=1
reset=0
out=109

Inside foo after eval.....
clk=0
reset=0
out=109
=============yogapriya_rvmyth : New Iteration===========
Instance : 1

Inside foo before eval.....
clk=0
reset=0
out=109

Inside foo after eval.....
clk=1
reset=0
out=109
=============yogapriya_rvmyth : New Iteration===========
Instance : 1

Inside foo before eval.....
clk=1
reset=0
out=109

Inside foo after eval.....
clk=1
reset=0
out=109
=============yogapriya_rvmyth : New Iteration===========
Instance : 1

Inside foo before eval.....
clk=1
reset=0
out=109

Inside foo after eval.....
clk=0
reset=0
out=109
=============yogapriya_rvmyth : New Iteration===========
Instance : 1

Inside foo before eval.....
clk=0
reset=0
out=109

Inside foo after eval.....
clk=1
reset=0
out=110
=============yogapriya_rvmyth : New Iteration===========
Instance : 1

Inside foo before eval.....
clk=1
reset=0
out=110

Inside foo after eval.....
clk=1
reset=0
out=110
=============yogapriya_rvmyth : New Iteration===========
Instance : 1

Inside foo before eval.....
clk=1
reset=0
out=110

Inside foo after eval.....
clk=0
reset=0
out=110
=============yogapriya_rvmyth : New Iteration===========
Instance : 1

Inside foo before eval.....
clk=0
reset=0
out=110

Inside foo after eval.....
clk=1
reset=0
out=110
=============yogapriya_rvmyth : New Iteration===========
Instance : 1

Inside foo before eval.....
clk=1
reset=0
out=110

Inside foo after eval.....
clk=1
reset=0
out=110
=============yogapriya_rvmyth : New Iteration===========
Instance : 1

Inside foo before eval.....
clk=1
reset=0
out=110

Inside foo after eval.....
clk=0
reset=0
out=110
=============yogapriya_rvmyth : New Iteration===========
Instance : 1

Inside foo before eval.....
clk=0
reset=0
out=110

Inside foo after eval.....
clk=1
reset=0
out=110
=============yogapriya_rvmyth : New Iteration===========
Instance : 1

Inside foo before eval.....
clk=1
reset=0
out=110

Inside foo after eval.....
clk=1
reset=0
out=110
=============yogapriya_rvmyth : New Iteration===========
Instance : 1

Inside foo before eval.....
clk=1
reset=0
out=110

Inside foo after eval.....
clk=0
reset=0
out=110
=============yogapriya_rvmyth : New Iteration===========
Instance : 1

Inside foo before eval.....
clk=0
reset=0
out=110

Inside foo after eval.....
clk=1
reset=0
out=110
=============yogapriya_rvmyth : New Iteration===========
Instance : 1

Inside foo before eval.....
clk=1
reset=0
out=110

Inside foo after eval.....
clk=1
reset=0
out=110
=============yogapriya_rvmyth : New Iteration===========
Instance : 1

Inside foo before eval.....
clk=1
reset=0
out=110

Inside foo after eval.....
clk=0
reset=0
out=110
=============yogapriya_rvmyth : New Iteration===========
Instance : 1

Inside foo before eval.....
clk=0
reset=0
out=110

Inside foo after eval.....
clk=1
reset=0
out=111
=============yogapriya_rvmyth : New Iteration===========
Instance : 1

Inside foo before eval.....
clk=1
reset=0
out=111

Inside foo after eval.....
clk=1
reset=0
out=111
=============yogapriya_rvmyth : New Iteration===========
Instance : 1

Inside foo before eval.....
clk=1
reset=0
out=111

Inside foo after eval.....
clk=0
reset=0
out=111
=============yogapriya_rvmyth : New Iteration===========
Instance : 1

Inside foo before eval.....
clk=0
reset=0
out=111

Inside foo after eval.....
clk=1
reset=0
out=111
=============yogapriya_rvmyth : New Iteration===========
Instance : 1

Inside foo before eval.....
clk=1
reset=0
out=111

Inside foo after eval.....
clk=1
reset=0
out=111
=============yogapriya_rvmyth : New Iteration===========
Instance : 1

Inside foo before eval.....
clk=1
reset=0
out=111

Inside foo after eval.....
clk=0
reset=0
out=111
=============yogapriya_rvmyth : New Iteration===========
Instance : 1

Inside foo before eval.....
clk=0
reset=0
out=111

Inside foo after eval.....
clk=1
reset=0
out=111
=============yogapriya_rvmyth : New Iteration===========
Instance : 1

Inside foo before eval.....
clk=1
reset=0
out=111

Inside foo after eval.....
clk=1
reset=0
out=111
=============yogapriya_rvmyth : New Iteration===========
Instance : 1

Inside foo before eval.....
clk=1
reset=0
out=111

Inside foo after eval.....
clk=0
reset=0
out=111
=============yogapriya_rvmyth : New Iteration===========
Instance : 1

Inside foo before eval.....
clk=0
reset=0
out=111

Inside foo after eval.....
clk=1
reset=0
out=111
=============yogapriya_rvmyth : New Iteration===========
Instance : 1

Inside foo before eval.....
clk=1
reset=0
out=111

Inside foo after eval.....
clk=1
reset=0
out=111
=============yogapriya_rvmyth : New Iteration===========
Instance : 1

Inside foo before eval.....
clk=1
reset=0
out=111

Inside foo after eval.....
clk=0
reset=0
out=111
=============yogapriya_rvmyth : New Iteration===========
Instance : 1

Inside foo before eval.....
clk=0
reset=0
out=111

Inside foo after eval.....
clk=1
reset=0
out=112
=============yogapriya_rvmyth : New Iteration===========
Instance : 1

Inside foo before eval.....
clk=1
reset=0
out=112

Inside foo after eval.....
clk=1
reset=0
out=112
=============yogapriya_rvmyth : New Iteration===========
Instance : 1

Inside foo before eval.....
clk=1
reset=0
out=112

Inside foo after eval.....
clk=0
reset=0
out=112
=============yogapriya_rvmyth : New Iteration===========
Instance : 1

Inside foo before eval.....
clk=0
reset=0
out=112

Inside foo after eval.....
clk=1
reset=0
out=112
=============yogapriya_rvmyth : New Iteration===========
Instance : 1

Inside foo before eval.....
clk=1
reset=0
out=112

Inside foo after eval.....
clk=1
reset=0
out=112
=============yogapriya_rvmyth : New Iteration===========
Instance : 1

Inside foo before eval.....
clk=1
reset=0
out=112

Inside foo after eval.....
clk=0
reset=0
out=112
=============yogapriya_rvmyth : New Iteration===========
Instance : 1

Inside foo before eval.....
clk=0
reset=0
out=112

Inside foo after eval.....
clk=1
reset=0
out=112
=============yogapriya_rvmyth : New Iteration===========
Instance : 1

Inside foo before eval.....
clk=1
reset=0
out=112

Inside foo after eval.....
clk=1
reset=0
out=112
=============yogapriya_rvmyth : New Iteration===========
Instance : 1

Inside foo before eval.....
clk=1
reset=0
out=112

Inside foo after eval.....
clk=0
reset=0
out=112
=============yogapriya_rvmyth : New Iteration===========
Instance : 1

Inside foo before eval.....
clk=0
reset=0
out=112

Inside foo after eval.....
clk=1
reset=0
out=112
=============yogapriya_rvmyth : New Iteration===========
Instance : 1

Inside foo before eval.....
clk=1
reset=0
out=112

Inside foo after eval.....
clk=1
reset=0
out=112
=============yogapriya_rvmyth : New Iteration===========
Instance : 1

Inside foo before eval.....
clk=1
reset=0
out=112

Inside foo after eval.....
clk=0
reset=0
out=112
=============yogapriya_rvmyth : New Iteration===========
Instance : 1

Inside foo before eval.....
clk=0
reset=0
out=112

Inside foo after eval.....
clk=1
reset=0
out=113
=============yogapriya_rvmyth : New Iteration===========
Instance : 1

Inside foo before eval.....
clk=1
reset=0
out=113

Inside foo after eval.....
clk=1
reset=0
out=113
=============yogapriya_rvmyth : New Iteration===========
Instance : 1

Inside foo before eval.....
clk=1
reset=0
out=113

Inside foo after eval.....
clk=0
reset=0
out=113
=============yogapriya_rvmyth : New Iteration===========
Instance : 1

Inside foo before eval.....
clk=0
reset=0
out=113

Inside foo after eval.....
clk=1
reset=0
out=113
=============yogapriya_rvmyth : New Iteration===========
Instance : 1

Inside foo before eval.....
clk=1
reset=0
out=113

Inside foo after eval.....
clk=1
reset=0
out=113
=============yogapriya_rvmyth : New Iteration===========
Instance : 1

Inside foo before eval.....
clk=1
reset=0
out=113

Inside foo after eval.....
clk=0
reset=0
out=113
=============yogapriya_rvmyth : New Iteration===========
Instance : 1

Inside foo before eval.....
clk=0
reset=0
out=113

Inside foo after eval.....
clk=1
reset=0
out=113
=============yogapriya_rvmyth : New Iteration===========
Instance : 1

Inside foo before eval.....
clk=1
reset=0
out=113

Inside foo after eval.....
clk=1
reset=0
out=113
=============yogapriya_rvmyth : New Iteration===========
Instance : 1

Inside foo before eval.....
clk=1
reset=0
out=113

Inside foo after eval.....
clk=0
reset=0
out=113
=============yogapriya_rvmyth : New Iteration===========
Instance : 1

Inside foo before eval.....
clk=0
reset=0
out=113

Inside foo after eval.....
clk=1
reset=0
out=113
=============yogapriya_rvmyth : New Iteration===========
Instance : 1

Inside foo before eval.....
clk=1
reset=0
out=113

Inside foo after eval.....
clk=1
reset=0
out=113
=============yogapriya_rvmyth : New Iteration===========
Instance : 1

Inside foo before eval.....
clk=1
reset=0
out=113

Inside foo after eval.....
clk=0
reset=0
out=113
=============yogapriya_rvmyth : New Iteration===========
Instance : 1

Inside foo before eval.....
clk=0
reset=0
out=113

Inside foo after eval.....
clk=1
reset=0
out=114
=============yogapriya_rvmyth : New Iteration===========
Instance : 1

Inside foo before eval.....
clk=1
reset=0
out=114

Inside foo after eval.....
clk=1
reset=0
out=114
=============yogapriya_rvmyth : New Iteration===========
Instance : 1

Inside foo before eval.....
clk=1
reset=0
out=114

Inside foo after eval.....
clk=0
reset=0
out=114
=============yogapriya_rvmyth : New Iteration===========
Instance : 1

Inside foo before eval.....
clk=0
reset=0
out=114

Inside foo after eval.....
clk=1
reset=0
out=114
=============yogapriya_rvmyth : New Iteration===========
Instance : 1

Inside foo before eval.....
clk=1
reset=0
out=114

Inside foo after eval.....
clk=1
reset=0
out=114
=============yogapriya_rvmyth : New Iteration===========
Instance : 1

Inside foo before eval.....
clk=1
reset=0
out=114

Inside foo after eval.....
clk=0
reset=0
out=114
=============yogapriya_rvmyth : New Iteration===========
Instance : 1

Inside foo before eval.....
clk=0
reset=0
out=114

Inside foo after eval.....
clk=1
reset=0
out=114
=============yogapriya_rvmyth : New Iteration===========
Instance : 1

Inside foo before eval.....
clk=1
reset=0
out=114

Inside foo after eval.....
clk=1
reset=0
out=114
=============yogapriya_rvmyth : New Iteration===========
Instance : 1

Inside foo before eval.....
clk=1
reset=0
out=114

Inside foo after eval.....
clk=0
reset=0
out=114
=============yogapriya_rvmyth : New Iteration===========
Instance : 1

Inside foo before eval.....
clk=0
reset=0
out=114

Inside foo after eval.....
clk=1
reset=0
out=114
=============yogapriya_rvmyth : New Iteration===========
Instance : 1

Inside foo before eval.....
clk=1
reset=0
out=114

Inside foo after eval.....
clk=1
reset=0
out=114
=============yogapriya_rvmyth : New Iteration===========
Instance : 1

Inside foo before eval.....
clk=1
reset=0
out=114

Inside foo after eval.....
clk=0
reset=0
out=114
=============yogapriya_rvmyth : New Iteration===========
Instance : 1

Inside foo before eval.....
clk=0
reset=0
out=114

Inside foo after eval.....
clk=1
reset=0
out=115
=============yogapriya_rvmyth : New Iteration===========
Instance : 1

Inside foo before eval.....
clk=1
reset=0
out=115

Inside foo after eval.....
clk=1
reset=0
out=115
=============yogapriya_rvmyth : New Iteration===========
Instance : 1

Inside foo before eval.....
clk=1
reset=0
out=115

Inside foo after eval.....
clk=0
reset=0
out=115
=============yogapriya_rvmyth : New Iteration===========
Instance : 1

Inside foo before eval.....
clk=0
reset=0
out=115

Inside foo after eval.....
clk=1
reset=0
out=115
=============yogapriya_rvmyth : New Iteration===========
Instance : 1

Inside foo before eval.....
clk=1
reset=0
out=115

Inside foo after eval.....
clk=1
reset=0
out=115
=============yogapriya_rvmyth : New Iteration===========
Instance : 1

Inside foo before eval.....
clk=1
reset=0
out=115

Inside foo after eval.....
clk=0
reset=0
out=115
=============yogapriya_rvmyth : New Iteration===========
Instance : 1

Inside foo before eval.....
clk=0
reset=0
out=115

Inside foo after eval.....
clk=1
reset=0
out=115
=============yogapriya_rvmyth : New Iteration===========
Instance : 1

Inside foo before eval.....
clk=1
reset=0
out=115

Inside foo after eval.....
clk=1
reset=0
out=115
=============yogapriya_rvmyth : New Iteration===========
Instance : 1

Inside foo before eval.....
clk=1
reset=0
out=115

Inside foo after eval.....
clk=0
reset=0
out=115
=============yogapriya_rvmyth : New Iteration===========
Instance : 1

Inside foo before eval.....
clk=0
reset=0
out=115

Inside foo after eval.....
clk=1
reset=0
out=115
=============yogapriya_rvmyth : New Iteration===========
Instance : 1

Inside foo before eval.....
clk=1
reset=0
out=115

Inside foo after eval.....
clk=1
reset=0
out=115
=============yogapriya_rvmyth : New Iteration===========
Instance : 1

Inside foo before eval.....
clk=1
reset=0
out=115

Inside foo after eval.....
clk=0
reset=0
out=115
=============yogapriya_rvmyth : New Iteration===========
Instance : 1

Inside foo before eval.....
clk=0
reset=0
out=115

Inside foo after eval.....
clk=1
reset=0
out=116
=============yogapriya_rvmyth : New Iteration===========
Instance : 1

Inside foo before eval.....
clk=1
reset=0
out=116

Inside foo after eval.....
clk=1
reset=0
out=116
=============yogapriya_rvmyth : New Iteration===========
Instance : 1

Inside foo before eval.....
clk=1
reset=0
out=116

Inside foo after eval.....
clk=0
reset=0
out=116
=============yogapriya_rvmyth : New Iteration===========
Instance : 1

Inside foo before eval.....
clk=0
reset=0
out=116

Inside foo after eval.....
clk=1
reset=0
out=116
=============yogapriya_rvmyth : New Iteration===========
Instance : 1

Inside foo before eval.....
clk=1
reset=0
out=116

Inside foo after eval.....
clk=1
reset=0
out=116
=============yogapriya_rvmyth : New Iteration===========
Instance : 1

Inside foo before eval.....
clk=1
reset=0
out=116

Inside foo after eval.....
clk=0
reset=0
out=116
=============yogapriya_rvmyth : New Iteration===========
Instance : 1

Inside foo before eval.....
clk=0
reset=0
out=116

Inside foo after eval.....
clk=1
reset=0
out=116
=============yogapriya_rvmyth : New Iteration===========
Instance : 1

Inside foo before eval.....
clk=1
reset=0
out=116

Inside foo after eval.....
clk=1
reset=0
out=116
=============yogapriya_rvmyth : New Iteration===========
Instance : 1

Inside foo before eval.....
clk=1
reset=0
out=116

Inside foo after eval.....
clk=0
reset=0
out=116
=============yogapriya_rvmyth : New Iteration===========
Instance : 1

Inside foo before eval.....
clk=0
reset=0
out=116

Inside foo after eval.....
clk=1
reset=0
out=116
=============yogapriya_rvmyth : New Iteration===========
Instance : 1

Inside foo before eval.....
clk=1
reset=0
out=116

Inside foo after eval.....
clk=1
reset=0
out=116
=============yogapriya_rvmyth : New Iteration===========
Instance : 1

Inside foo before eval.....
clk=1
reset=0
out=116

Inside foo after eval.....
clk=0
reset=0
out=116

No. of Data Rows : 52017

Total analysis time (seconds) = 8.77345

Total CPU time (seconds) = 14.606 

Total DRAM available = 257855.305 MB.
DRAM currently available = 236816.949 MB.
Maximum ngspice program size =  183.699 MB.
Current ngspice program size =  106.242 MB.

Shared ngspice pages =    9.672 MB.
Text (code) pages =    6.285 MB.
Stack = 0 bytes.
Library pages =   97.242 MB.

